<?xml version="1.0" encoding="UTF-8" standalone="no"?><!-- generated on Mon Jan  2 21:29:02 2017 by SUMO netgenerate Version 0.25.0
<?xml version="1.0" encoding="UTF-8"?>

<configuration xmlns:xsi="http://www.w3.org/2001/XMLSchema-instance" xsi:noNamespaceSchemaLocation="http://sumo.dlr.de/xsd/netgenerateConfiguration.xsd">

    <grid_network>
        <grid value="true"/>
        <grid.length value="300"/>
        <grid.x-number value="5"/>
        <grid.y-number value="5"/>
    </grid_network>

    <output>
        <output-file value="net.net.xml"/>
    </output>

    <processing>
        <no-turnarounds value="true"/>
        <no-left-connections value="true"/>
    </processing>

    <building_defaults>
        <default-junction-type value="traffic_light"/>
    </building_defaults>

</configuration>
--><net xmlns:xsi="http://www.w3.org/2001/XMLSchema-instance" version="0.25" xsi:noNamespaceSchemaLocation="http://sumo.dlr.de/xsd/net_file.xsd">

    <location convBoundary="0.00,0.00,1200.00,1200.00" netOffset="0.00,0.00" origBoundary="0.00,0.00,1200.00,1200.00" projParameter="!"/>

    <edge function="internal" id=":0/0_0">
        <lane id=":0/0_0_0" index="0" length="7.90" shape="-1.65,3.25 -1.34,1.11 -0.43,-0.43 1.11,-1.34 3.25,-1.65" speed="13.90"/>
    </edge>
    <edge function="internal" id=":0/0_1">
        <lane id=":0/0_1_0" index="0" length="2.58" shape="3.25,1.65 2.55,1.75 2.05,2.05 1.75,2.55 1.65,3.25" speed="13.90"/>
    </edge>
    <edge function="internal" id=":0/1_0">
        <lane id=":0/1_0_0" index="0" length="9.50" shape="-1.65,304.75 -1.65,295.25" speed="13.90"/>
    </edge>
    <edge function="internal" id=":0/1_1">
        <lane id=":0/1_1_0" index="0" length="5.00" shape="4.75,301.65 3.39,301.84 2.43,302.42 1.84,303.39 1.65,304.75" speed="13.90"/>
    </edge>
    <edge function="internal" id=":0/1_2">
        <lane id=":0/1_2_0" index="0" length="5.00" shape="1.65,295.25 1.84,296.61 2.43,297.58 3.39,298.16 4.75,298.35" speed="13.90"/>
    </edge>
    <edge function="internal" id=":0/1_3">
        <lane id=":0/1_3_0" index="0" length="9.50" shape="1.65,295.25 1.65,304.75" speed="13.90"/>
    </edge>
    <edge function="internal" id=":0/2_0">
        <lane id=":0/2_0_0" index="0" length="9.50" shape="-1.65,604.75 -1.65,595.25" speed="13.90"/>
    </edge>
    <edge function="internal" id=":0/2_1">
        <lane id=":0/2_1_0" index="0" length="5.00" shape="4.75,601.65 3.39,601.84 2.43,602.42 1.84,603.39 1.65,604.75" speed="13.90"/>
    </edge>
    <edge function="internal" id=":0/2_2">
        <lane id=":0/2_2_0" index="0" length="5.00" shape="1.65,595.25 1.84,596.61 2.43,597.58 3.39,598.16 4.75,598.35" speed="13.90"/>
    </edge>
    <edge function="internal" id=":0/2_3">
        <lane id=":0/2_3_0" index="0" length="9.50" shape="1.65,595.25 1.65,604.75" speed="13.90"/>
    </edge>
    <edge function="internal" id=":0/3_0">
        <lane id=":0/3_0_0" index="0" length="9.50" shape="-1.65,904.75 -1.65,895.25" speed="13.90"/>
    </edge>
    <edge function="internal" id=":0/3_1">
        <lane id=":0/3_1_0" index="0" length="5.00" shape="4.75,901.65 3.39,901.84 2.43,902.42 1.84,903.39 1.65,904.75" speed="13.90"/>
    </edge>
    <edge function="internal" id=":0/3_2">
        <lane id=":0/3_2_0" index="0" length="5.00" shape="1.65,895.25 1.84,896.61 2.43,897.57 3.39,898.16 4.75,898.35" speed="13.90"/>
    </edge>
    <edge function="internal" id=":0/3_3">
        <lane id=":0/3_3_0" index="0" length="9.50" shape="1.65,895.25 1.65,904.75" speed="13.90"/>
    </edge>
    <edge function="internal" id=":0/4_0">
        <lane id=":0/4_0_0" index="0" length="7.90" shape="3.25,1201.65 1.11,1201.34 -0.43,1200.43 -1.34,1198.89 -1.65,1196.75" speed="13.90"/>
    </edge>
    <edge function="internal" id=":0/4_1">
        <lane id=":0/4_1_0" index="0" length="2.58" shape="1.65,1196.75 1.75,1197.45 2.05,1197.95 2.55,1198.25 3.25,1198.35" speed="13.90"/>
    </edge>
    <edge function="internal" id=":1/0_0">
        <lane id=":1/0_0_0" index="0" length="5.00" shape="298.35,4.75 298.16,3.39 297.58,2.43 296.61,1.84 295.25,1.65" speed="13.90"/>
    </edge>
    <edge function="internal" id=":1/0_1">
        <lane id=":1/0_1_0" index="0" length="5.00" shape="304.75,1.65 303.39,1.84 302.42,2.43 301.84,3.39 301.65,4.75" speed="13.90"/>
    </edge>
    <edge function="internal" id=":1/0_2">
        <lane id=":1/0_2_0" index="0" length="9.50" shape="304.75,1.65 295.25,1.65" speed="13.90"/>
    </edge>
    <edge function="internal" id=":1/0_3">
        <lane id=":1/0_3_0" index="0" length="9.50" shape="295.25,-1.65 304.75,-1.65" speed="13.90"/>
    </edge>
    <edge function="internal" id=":1/1_0">
        <lane id=":1/1_0_0" index="0" length="5.00" shape="298.35,304.75 298.16,303.39 297.58,302.42 296.61,301.84 295.25,301.65" speed="13.90"/>
    </edge>
    <edge function="internal" id=":1/1_1">
        <lane id=":1/1_1_0" index="0" length="9.50" shape="298.35,304.75 298.35,295.25" speed="13.90"/>
    </edge>
    <edge function="internal" id=":1/1_2">
        <lane id=":1/1_2_0" index="0" length="5.00" shape="304.75,301.65 303.39,301.84 302.42,302.42 301.84,303.39 301.65,304.75" speed="13.90"/>
    </edge>
    <edge function="internal" id=":1/1_3">
        <lane id=":1/1_3_0" index="0" length="9.50" shape="304.75,301.65 295.25,301.65" speed="13.90"/>
    </edge>
    <edge function="internal" id=":1/1_4">
        <lane id=":1/1_4_0" index="0" length="5.00" shape="301.65,295.25 301.84,296.61 302.42,297.58 303.39,298.16 304.75,298.35" speed="13.90"/>
    </edge>
    <edge function="internal" id=":1/1_5">
        <lane id=":1/1_5_0" index="0" length="9.50" shape="301.65,295.25 301.65,304.75" speed="13.90"/>
    </edge>
    <edge function="internal" id=":1/1_6">
        <lane id=":1/1_6_0" index="0" length="5.00" shape="295.25,298.35 296.61,298.16 297.58,297.58 298.16,296.61 298.35,295.25" speed="13.90"/>
    </edge>
    <edge function="internal" id=":1/1_7">
        <lane id=":1/1_7_0" index="0" length="9.50" shape="295.25,298.35 304.75,298.35" speed="13.90"/>
    </edge>
    <edge function="internal" id=":1/2_0">
        <lane id=":1/2_0_0" index="0" length="5.00" shape="298.35,604.75 298.16,603.39 297.58,602.42 296.61,601.84 295.25,601.65" speed="13.90"/>
    </edge>
    <edge function="internal" id=":1/2_1">
        <lane id=":1/2_1_0" index="0" length="9.50" shape="298.35,604.75 298.35,595.25" speed="13.90"/>
    </edge>
    <edge function="internal" id=":1/2_2">
        <lane id=":1/2_2_0" index="0" length="5.00" shape="304.75,601.65 303.39,601.84 302.42,602.42 301.84,603.39 301.65,604.75" speed="13.90"/>
    </edge>
    <edge function="internal" id=":1/2_3">
        <lane id=":1/2_3_0" index="0" length="9.50" shape="304.75,601.65 295.25,601.65" speed="13.90"/>
    </edge>
    <edge function="internal" id=":1/2_4">
        <lane id=":1/2_4_0" index="0" length="5.00" shape="301.65,595.25 301.84,596.61 302.42,597.58 303.39,598.16 304.75,598.35" speed="13.90"/>
    </edge>
    <edge function="internal" id=":1/2_5">
        <lane id=":1/2_5_0" index="0" length="9.50" shape="301.65,595.25 301.65,604.75" speed="13.90"/>
    </edge>
    <edge function="internal" id=":1/2_6">
        <lane id=":1/2_6_0" index="0" length="5.00" shape="295.25,598.35 296.61,598.16 297.58,597.58 298.16,596.61 298.35,595.25" speed="13.90"/>
    </edge>
    <edge function="internal" id=":1/2_7">
        <lane id=":1/2_7_0" index="0" length="9.50" shape="295.25,598.35 304.75,598.35" speed="13.90"/>
    </edge>
    <edge function="internal" id=":1/3_0">
        <lane id=":1/3_0_0" index="0" length="5.00" shape="298.35,904.75 298.16,903.39 297.58,902.43 296.61,901.84 295.25,901.65" speed="13.90"/>
    </edge>
    <edge function="internal" id=":1/3_1">
        <lane id=":1/3_1_0" index="0" length="9.50" shape="298.35,904.75 298.35,895.25" speed="13.90"/>
    </edge>
    <edge function="internal" id=":1/3_2">
        <lane id=":1/3_2_0" index="0" length="5.00" shape="304.75,901.65 303.39,901.84 302.42,902.42 301.84,903.39 301.65,904.75" speed="13.90"/>
    </edge>
    <edge function="internal" id=":1/3_3">
        <lane id=":1/3_3_0" index="0" length="9.50" shape="304.75,901.65 295.25,901.65" speed="13.90"/>
    </edge>
    <edge function="internal" id=":1/3_4">
        <lane id=":1/3_4_0" index="0" length="5.00" shape="301.65,895.25 301.84,896.61 302.42,897.57 303.39,898.16 304.75,898.35" speed="13.90"/>
    </edge>
    <edge function="internal" id=":1/3_5">
        <lane id=":1/3_5_0" index="0" length="9.50" shape="301.65,895.25 301.65,904.75" speed="13.90"/>
    </edge>
    <edge function="internal" id=":1/3_6">
        <lane id=":1/3_6_0" index="0" length="5.00" shape="295.25,898.35 296.61,898.16 297.58,897.58 298.16,896.61 298.35,895.25" speed="13.90"/>
    </edge>
    <edge function="internal" id=":1/3_7">
        <lane id=":1/3_7_0" index="0" length="9.50" shape="295.25,898.35 304.75,898.35" speed="13.90"/>
    </edge>
    <edge function="internal" id=":1/4_0">
        <lane id=":1/4_0_0" index="0" length="9.50" shape="304.75,1201.65 295.25,1201.65" speed="13.90"/>
    </edge>
    <edge function="internal" id=":1/4_1">
        <lane id=":1/4_1_0" index="0" length="5.00" shape="301.65,1195.25 301.84,1196.61 302.42,1197.57 303.39,1198.16 304.75,1198.35" speed="13.90"/>
    </edge>
    <edge function="internal" id=":1/4_2">
        <lane id=":1/4_2_0" index="0" length="5.00" shape="295.25,1198.35 296.61,1198.16 297.58,1197.57 298.16,1196.61 298.35,1195.25" speed="13.90"/>
    </edge>
    <edge function="internal" id=":1/4_3">
        <lane id=":1/4_3_0" index="0" length="9.50" shape="295.25,1198.35 304.75,1198.35" speed="13.90"/>
    </edge>
    <edge function="internal" id=":2/0_0">
        <lane id=":2/0_0_0" index="0" length="5.00" shape="598.35,4.75 598.16,3.39 597.58,2.43 596.61,1.84 595.25,1.65" speed="13.90"/>
    </edge>
    <edge function="internal" id=":2/0_1">
        <lane id=":2/0_1_0" index="0" length="5.00" shape="604.75,1.65 603.39,1.84 602.42,2.43 601.84,3.39 601.65,4.75" speed="13.90"/>
    </edge>
    <edge function="internal" id=":2/0_2">
        <lane id=":2/0_2_0" index="0" length="9.50" shape="604.75,1.65 595.25,1.65" speed="13.90"/>
    </edge>
    <edge function="internal" id=":2/0_3">
        <lane id=":2/0_3_0" index="0" length="9.50" shape="595.25,-1.65 604.75,-1.65" speed="13.90"/>
    </edge>
    <edge function="internal" id=":2/1_0">
        <lane id=":2/1_0_0" index="0" length="5.00" shape="598.35,304.75 598.16,303.39 597.58,302.42 596.61,301.84 595.25,301.65" speed="13.90"/>
    </edge>
    <edge function="internal" id=":2/1_1">
        <lane id=":2/1_1_0" index="0" length="9.50" shape="598.35,304.75 598.35,295.25" speed="13.90"/>
    </edge>
    <edge function="internal" id=":2/1_2">
        <lane id=":2/1_2_0" index="0" length="5.00" shape="604.75,301.65 603.39,301.84 602.42,302.42 601.84,303.39 601.65,304.75" speed="13.90"/>
    </edge>
    <edge function="internal" id=":2/1_3">
        <lane id=":2/1_3_0" index="0" length="9.50" shape="604.75,301.65 595.25,301.65" speed="13.90"/>
    </edge>
    <edge function="internal" id=":2/1_4">
        <lane id=":2/1_4_0" index="0" length="5.00" shape="601.65,295.25 601.84,296.61 602.42,297.58 603.39,298.16 604.75,298.35" speed="13.90"/>
    </edge>
    <edge function="internal" id=":2/1_5">
        <lane id=":2/1_5_0" index="0" length="9.50" shape="601.65,295.25 601.65,304.75" speed="13.90"/>
    </edge>
    <edge function="internal" id=":2/1_6">
        <lane id=":2/1_6_0" index="0" length="5.00" shape="595.25,298.35 596.61,298.16 597.58,297.58 598.16,296.61 598.35,295.25" speed="13.90"/>
    </edge>
    <edge function="internal" id=":2/1_7">
        <lane id=":2/1_7_0" index="0" length="9.50" shape="595.25,298.35 604.75,298.35" speed="13.90"/>
    </edge>
    <edge function="internal" id=":2/2_0">
        <lane id=":2/2_0_0" index="0" length="5.00" shape="598.35,604.75 598.16,603.39 597.58,602.42 596.61,601.84 595.25,601.65" speed="13.90"/>
    </edge>
    <edge function="internal" id=":2/2_1">
        <lane id=":2/2_1_0" index="0" length="9.50" shape="598.35,604.75 598.35,595.25" speed="13.90"/>
    </edge>
    <edge function="internal" id=":2/2_2">
        <lane id=":2/2_2_0" index="0" length="5.00" shape="604.75,601.65 603.39,601.84 602.42,602.42 601.84,603.39 601.65,604.75" speed="13.90"/>
    </edge>
    <edge function="internal" id=":2/2_3">
        <lane id=":2/2_3_0" index="0" length="9.50" shape="604.75,601.65 595.25,601.65" speed="13.90"/>
    </edge>
    <edge function="internal" id=":2/2_4">
        <lane id=":2/2_4_0" index="0" length="5.00" shape="601.65,595.25 601.84,596.61 602.42,597.58 603.39,598.16 604.75,598.35" speed="13.90"/>
    </edge>
    <edge function="internal" id=":2/2_5">
        <lane id=":2/2_5_0" index="0" length="9.50" shape="601.65,595.25 601.65,604.75" speed="13.90"/>
    </edge>
    <edge function="internal" id=":2/2_6">
        <lane id=":2/2_6_0" index="0" length="5.00" shape="595.25,598.35 596.61,598.16 597.58,597.58 598.16,596.61 598.35,595.25" speed="13.90"/>
    </edge>
    <edge function="internal" id=":2/2_7">
        <lane id=":2/2_7_0" index="0" length="9.50" shape="595.25,598.35 604.75,598.35" speed="13.90"/>
    </edge>
    <edge function="internal" id=":2/3_0">
        <lane id=":2/3_0_0" index="0" length="5.00" shape="598.35,904.75 598.16,903.39 597.58,902.43 596.61,901.84 595.25,901.65" speed="13.90"/>
    </edge>
    <edge function="internal" id=":2/3_1">
        <lane id=":2/3_1_0" index="0" length="9.50" shape="598.35,904.75 598.35,895.25" speed="13.90"/>
    </edge>
    <edge function="internal" id=":2/3_2">
        <lane id=":2/3_2_0" index="0" length="5.00" shape="604.75,901.65 603.39,901.84 602.42,902.42 601.84,903.39 601.65,904.75" speed="13.90"/>
    </edge>
    <edge function="internal" id=":2/3_3">
        <lane id=":2/3_3_0" index="0" length="9.50" shape="604.75,901.65 595.25,901.65" speed="13.90"/>
    </edge>
    <edge function="internal" id=":2/3_4">
        <lane id=":2/3_4_0" index="0" length="5.00" shape="601.65,895.25 601.84,896.61 602.42,897.57 603.39,898.16 604.75,898.35" speed="13.90"/>
    </edge>
    <edge function="internal" id=":2/3_5">
        <lane id=":2/3_5_0" index="0" length="9.50" shape="601.65,895.25 601.65,904.75" speed="13.90"/>
    </edge>
    <edge function="internal" id=":2/3_6">
        <lane id=":2/3_6_0" index="0" length="5.00" shape="595.25,898.35 596.61,898.16 597.58,897.58 598.16,896.61 598.35,895.25" speed="13.90"/>
    </edge>
    <edge function="internal" id=":2/3_7">
        <lane id=":2/3_7_0" index="0" length="9.50" shape="595.25,898.35 604.75,898.35" speed="13.90"/>
    </edge>
    <edge function="internal" id=":2/4_0">
        <lane id=":2/4_0_0" index="0" length="9.50" shape="604.75,1201.65 595.25,1201.65" speed="13.90"/>
    </edge>
    <edge function="internal" id=":2/4_1">
        <lane id=":2/4_1_0" index="0" length="5.00" shape="601.65,1195.25 601.84,1196.61 602.42,1197.57 603.39,1198.16 604.75,1198.35" speed="13.90"/>
    </edge>
    <edge function="internal" id=":2/4_2">
        <lane id=":2/4_2_0" index="0" length="5.00" shape="595.25,1198.35 596.61,1198.16 597.58,1197.57 598.16,1196.61 598.35,1195.25" speed="13.90"/>
    </edge>
    <edge function="internal" id=":2/4_3">
        <lane id=":2/4_3_0" index="0" length="9.50" shape="595.25,1198.35 604.75,1198.35" speed="13.90"/>
    </edge>
    <edge function="internal" id=":3/0_0">
        <lane id=":3/0_0_0" index="0" length="5.00" shape="898.35,4.75 898.16,3.39 897.58,2.43 896.61,1.84 895.25,1.65" speed="13.90"/>
    </edge>
    <edge function="internal" id=":3/0_1">
        <lane id=":3/0_1_0" index="0" length="5.00" shape="904.75,1.65 903.39,1.84 902.43,2.43 901.84,3.39 901.65,4.75" speed="13.90"/>
    </edge>
    <edge function="internal" id=":3/0_2">
        <lane id=":3/0_2_0" index="0" length="9.50" shape="904.75,1.65 895.25,1.65" speed="13.90"/>
    </edge>
    <edge function="internal" id=":3/0_3">
        <lane id=":3/0_3_0" index="0" length="9.50" shape="895.25,-1.65 904.75,-1.65" speed="13.90"/>
    </edge>
    <edge function="internal" id=":3/1_0">
        <lane id=":3/1_0_0" index="0" length="5.00" shape="898.35,304.75 898.16,303.39 897.58,302.42 896.61,301.84 895.25,301.65" speed="13.90"/>
    </edge>
    <edge function="internal" id=":3/1_1">
        <lane id=":3/1_1_0" index="0" length="9.50" shape="898.35,304.75 898.35,295.25" speed="13.90"/>
    </edge>
    <edge function="internal" id=":3/1_2">
        <lane id=":3/1_2_0" index="0" length="5.00" shape="904.75,301.65 903.39,301.84 902.43,302.42 901.84,303.39 901.65,304.75" speed="13.90"/>
    </edge>
    <edge function="internal" id=":3/1_3">
        <lane id=":3/1_3_0" index="0" length="9.50" shape="904.75,301.65 895.25,301.65" speed="13.90"/>
    </edge>
    <edge function="internal" id=":3/1_4">
        <lane id=":3/1_4_0" index="0" length="5.00" shape="901.65,295.25 901.84,296.61 902.42,297.58 903.39,298.16 904.75,298.35" speed="13.90"/>
    </edge>
    <edge function="internal" id=":3/1_5">
        <lane id=":3/1_5_0" index="0" length="9.50" shape="901.65,295.25 901.65,304.75" speed="13.90"/>
    </edge>
    <edge function="internal" id=":3/1_6">
        <lane id=":3/1_6_0" index="0" length="5.00" shape="895.25,298.35 896.61,298.16 897.57,297.58 898.16,296.61 898.35,295.25" speed="13.90"/>
    </edge>
    <edge function="internal" id=":3/1_7">
        <lane id=":3/1_7_0" index="0" length="9.50" shape="895.25,298.35 904.75,298.35" speed="13.90"/>
    </edge>
    <edge function="internal" id=":3/2_0">
        <lane id=":3/2_0_0" index="0" length="5.00" shape="898.35,604.75 898.16,603.39 897.58,602.42 896.61,601.84 895.25,601.65" speed="13.90"/>
    </edge>
    <edge function="internal" id=":3/2_1">
        <lane id=":3/2_1_0" index="0" length="9.50" shape="898.35,604.75 898.35,595.25" speed="13.90"/>
    </edge>
    <edge function="internal" id=":3/2_2">
        <lane id=":3/2_2_0" index="0" length="5.00" shape="904.75,601.65 903.39,601.84 902.43,602.42 901.84,603.39 901.65,604.75" speed="13.90"/>
    </edge>
    <edge function="internal" id=":3/2_3">
        <lane id=":3/2_3_0" index="0" length="9.50" shape="904.75,601.65 895.25,601.65" speed="13.90"/>
    </edge>
    <edge function="internal" id=":3/2_4">
        <lane id=":3/2_4_0" index="0" length="5.00" shape="901.65,595.25 901.84,596.61 902.42,597.58 903.39,598.16 904.75,598.35" speed="13.90"/>
    </edge>
    <edge function="internal" id=":3/2_5">
        <lane id=":3/2_5_0" index="0" length="9.50" shape="901.65,595.25 901.65,604.75" speed="13.90"/>
    </edge>
    <edge function="internal" id=":3/2_6">
        <lane id=":3/2_6_0" index="0" length="5.00" shape="895.25,598.35 896.61,598.16 897.57,597.58 898.16,596.61 898.35,595.25" speed="13.90"/>
    </edge>
    <edge function="internal" id=":3/2_7">
        <lane id=":3/2_7_0" index="0" length="9.50" shape="895.25,598.35 904.75,598.35" speed="13.90"/>
    </edge>
    <edge function="internal" id=":3/3_0">
        <lane id=":3/3_0_0" index="0" length="5.00" shape="898.35,904.75 898.16,903.39 897.58,902.43 896.61,901.84 895.25,901.65" speed="13.90"/>
    </edge>
    <edge function="internal" id=":3/3_1">
        <lane id=":3/3_1_0" index="0" length="9.50" shape="898.35,904.75 898.35,895.25" speed="13.90"/>
    </edge>
    <edge function="internal" id=":3/3_2">
        <lane id=":3/3_2_0" index="0" length="5.00" shape="904.75,901.65 903.39,901.84 902.43,902.42 901.84,903.39 901.65,904.75" speed="13.90"/>
    </edge>
    <edge function="internal" id=":3/3_3">
        <lane id=":3/3_3_0" index="0" length="9.50" shape="904.75,901.65 895.25,901.65" speed="13.90"/>
    </edge>
    <edge function="internal" id=":3/3_4">
        <lane id=":3/3_4_0" index="0" length="5.00" shape="901.65,895.25 901.84,896.61 902.42,897.57 903.39,898.16 904.75,898.35" speed="13.90"/>
    </edge>
    <edge function="internal" id=":3/3_5">
        <lane id=":3/3_5_0" index="0" length="9.50" shape="901.65,895.25 901.65,904.75" speed="13.90"/>
    </edge>
    <edge function="internal" id=":3/3_6">
        <lane id=":3/3_6_0" index="0" length="5.00" shape="895.25,898.35 896.61,898.16 897.57,897.58 898.16,896.61 898.35,895.25" speed="13.90"/>
    </edge>
    <edge function="internal" id=":3/3_7">
        <lane id=":3/3_7_0" index="0" length="9.50" shape="895.25,898.35 904.75,898.35" speed="13.90"/>
    </edge>
    <edge function="internal" id=":3/4_0">
        <lane id=":3/4_0_0" index="0" length="9.50" shape="904.75,1201.65 895.25,1201.65" speed="13.90"/>
    </edge>
    <edge function="internal" id=":3/4_1">
        <lane id=":3/4_1_0" index="0" length="5.00" shape="901.65,1195.25 901.84,1196.61 902.42,1197.57 903.39,1198.16 904.75,1198.35" speed="13.90"/>
    </edge>
    <edge function="internal" id=":3/4_2">
        <lane id=":3/4_2_0" index="0" length="5.00" shape="895.25,1198.35 896.61,1198.16 897.57,1197.57 898.16,1196.61 898.35,1195.25" speed="13.90"/>
    </edge>
    <edge function="internal" id=":3/4_3">
        <lane id=":3/4_3_0" index="0" length="9.50" shape="895.25,1198.35 904.75,1198.35" speed="13.90"/>
    </edge>
    <edge function="internal" id=":4/0_0">
        <lane id=":4/0_0_0" index="0" length="2.58" shape="1198.35,3.25 1198.25,2.55 1197.95,2.05 1197.45,1.75 1196.75,1.65" speed="13.90"/>
    </edge>
    <edge function="internal" id=":4/0_1">
        <lane id=":4/0_1_0" index="0" length="7.90" shape="1196.75,-1.65 1198.89,-1.34 1200.43,-0.43 1201.34,1.11 1201.65,3.25" speed="13.90"/>
    </edge>
    <edge function="internal" id=":4/1_0">
        <lane id=":4/1_0_0" index="0" length="5.00" shape="1198.35,304.75 1198.16,303.39 1197.57,302.42 1196.61,301.84 1195.25,301.65" speed="13.90"/>
    </edge>
    <edge function="internal" id=":4/1_1">
        <lane id=":4/1_1_0" index="0" length="9.50" shape="1198.35,304.75 1198.35,295.25" speed="13.90"/>
    </edge>
    <edge function="internal" id=":4/1_2">
        <lane id=":4/1_2_0" index="0" length="9.50" shape="1201.65,295.25 1201.65,304.75" speed="13.90"/>
    </edge>
    <edge function="internal" id=":4/1_3">
        <lane id=":4/1_3_0" index="0" length="5.00" shape="1195.25,298.35 1196.61,298.16 1197.57,297.58 1198.16,296.61 1198.35,295.25" speed="13.90"/>
    </edge>
    <edge function="internal" id=":4/2_0">
        <lane id=":4/2_0_0" index="0" length="5.00" shape="1198.35,604.75 1198.16,603.39 1197.57,602.42 1196.61,601.84 1195.25,601.65" speed="13.90"/>
    </edge>
    <edge function="internal" id=":4/2_1">
        <lane id=":4/2_1_0" index="0" length="9.50" shape="1198.35,604.75 1198.35,595.25" speed="13.90"/>
    </edge>
    <edge function="internal" id=":4/2_2">
        <lane id=":4/2_2_0" index="0" length="9.50" shape="1201.65,595.25 1201.65,604.75" speed="13.90"/>
    </edge>
    <edge function="internal" id=":4/2_3">
        <lane id=":4/2_3_0" index="0" length="5.00" shape="1195.25,598.35 1196.61,598.16 1197.57,597.58 1198.16,596.61 1198.35,595.25" speed="13.90"/>
    </edge>
    <edge function="internal" id=":4/3_0">
        <lane id=":4/3_0_0" index="0" length="5.00" shape="1198.35,904.75 1198.16,903.39 1197.57,902.43 1196.61,901.84 1195.25,901.65" speed="13.90"/>
    </edge>
    <edge function="internal" id=":4/3_1">
        <lane id=":4/3_1_0" index="0" length="9.50" shape="1198.35,904.75 1198.35,895.25" speed="13.90"/>
    </edge>
    <edge function="internal" id=":4/3_2">
        <lane id=":4/3_2_0" index="0" length="9.50" shape="1201.65,895.25 1201.65,904.75" speed="13.90"/>
    </edge>
    <edge function="internal" id=":4/3_3">
        <lane id=":4/3_3_0" index="0" length="5.00" shape="1195.25,898.35 1196.61,898.16 1197.57,897.58 1198.16,896.61 1198.35,895.25" speed="13.90"/>
    </edge>
    <edge function="internal" id=":4/4_0">
        <lane id=":4/4_0_0" index="0" length="7.90" shape="1201.65,1196.75 1201.34,1198.89 1200.43,1200.43 1198.89,1201.34 1196.75,1201.65" speed="13.90"/>
    </edge>
    <edge function="internal" id=":4/4_1">
        <lane id=":4/4_1_0" index="0" length="2.58" shape="1196.75,1198.35 1197.45,1198.25 1197.95,1197.95 1198.25,1197.45 1198.35,1196.75" speed="13.90"/>
    </edge>

    <edge from="0/0" id="0/0to0/1" priority="-1" to="0/1">
        <lane id="0/0to0/1_0" index="0" length="292.00" shape="1.65,3.25 1.65,295.25" speed="13.90"/>
    </edge>
    <edge from="0/0" id="0/0to1/0" priority="-1" to="1/0">
        <lane id="0/0to1/0_0" index="0" length="292.00" shape="3.25,-1.65 295.25,-1.65" speed="13.90"/>
    </edge>
    <edge from="0/1" id="0/1to0/0" priority="-1" to="0/0">
        <lane id="0/1to0/0_0" index="0" length="292.00" shape="-1.65,295.25 -1.65,3.25" speed="13.90"/>
    </edge>
    <edge from="0/1" id="0/1to0/2" priority="-1" to="0/2">
        <lane id="0/1to0/2_0" index="0" length="290.50" shape="1.65,304.75 1.65,595.25" speed="13.90"/>
    </edge>
    <edge from="0/1" id="0/1to1/1" priority="-1" to="1/1">
        <lane id="0/1to1/1_0" index="0" length="290.50" shape="4.75,298.35 295.25,298.35" speed="13.90"/>
    </edge>
    <edge from="0/2" id="0/2to0/1" priority="-1" to="0/1">
        <lane id="0/2to0/1_0" index="0" length="290.50" shape="-1.65,595.25 -1.65,304.75" speed="13.90"/>
    </edge>
    <edge from="0/2" id="0/2to0/3" priority="-1" to="0/3">
        <lane id="0/2to0/3_0" index="0" length="290.50" shape="1.65,604.75 1.65,895.25" speed="13.90"/>
    </edge>
    <edge from="0/2" id="0/2to1/2" priority="-1" to="1/2">
        <lane id="0/2to1/2_0" index="0" length="290.50" shape="4.75,598.35 295.25,598.35" speed="13.90"/>
    </edge>
    <edge from="0/3" id="0/3to0/2" priority="-1" to="0/2">
        <lane id="0/3to0/2_0" index="0" length="290.50" shape="-1.65,895.25 -1.65,604.75" speed="13.90"/>
    </edge>
    <edge from="0/3" id="0/3to0/4" priority="-1" to="0/4">
        <lane id="0/3to0/4_0" index="0" length="292.00" shape="1.65,904.75 1.65,1196.75" speed="13.90"/>
    </edge>
    <edge from="0/3" id="0/3to1/3" priority="-1" to="1/3">
        <lane id="0/3to1/3_0" index="0" length="290.50" shape="4.75,898.35 295.25,898.35" speed="13.90"/>
    </edge>
    <edge from="0/4" id="0/4to0/3" priority="-1" to="0/3">
        <lane id="0/4to0/3_0" index="0" length="292.00" shape="-1.65,1196.75 -1.65,904.75" speed="13.90"/>
    </edge>
    <edge from="0/4" id="0/4to1/4" priority="-1" to="1/4">
        <lane id="0/4to1/4_0" index="0" length="292.00" shape="3.25,1198.35 295.25,1198.35" speed="13.90"/>
    </edge>
    <edge from="1/0" id="1/0to0/0" priority="-1" to="0/0">
        <lane id="1/0to0/0_0" index="0" length="292.00" shape="295.25,1.65 3.25,1.65" speed="13.90"/>
    </edge>
    <edge from="1/0" id="1/0to1/1" priority="-1" to="1/1">
        <lane id="1/0to1/1_0" index="0" length="290.50" shape="301.65,4.75 301.65,295.25" speed="13.90"/>
    </edge>
    <edge from="1/0" id="1/0to2/0" priority="-1" to="2/0">
        <lane id="1/0to2/0_0" index="0" length="290.50" shape="304.75,-1.65 595.25,-1.65" speed="13.90"/>
    </edge>
    <edge from="1/1" id="1/1to0/1" priority="-1" to="0/1">
        <lane id="1/1to0/1_0" index="0" length="290.50" shape="295.25,301.65 4.75,301.65" speed="13.90"/>
    </edge>
    <edge from="1/1" id="1/1to1/0" priority="-1" to="1/0">
        <lane id="1/1to1/0_0" index="0" length="290.50" shape="298.35,295.25 298.35,4.75" speed="13.90"/>
    </edge>
    <edge from="1/1" id="1/1to1/2" priority="-1" to="1/2">
        <lane id="1/1to1/2_0" index="0" length="290.50" shape="301.65,304.75 301.65,595.25" speed="13.90"/>
    </edge>
    <edge from="1/1" id="1/1to2/1" priority="-1" to="2/1">
        <lane id="1/1to2/1_0" index="0" length="290.50" shape="304.75,298.35 595.25,298.35" speed="13.90"/>
    </edge>
    <edge from="1/2" id="1/2to0/2" priority="-1" to="0/2">
        <lane id="1/2to0/2_0" index="0" length="290.50" shape="295.25,601.65 4.75,601.65" speed="13.90"/>
    </edge>
    <edge from="1/2" id="1/2to1/1" priority="-1" to="1/1">
        <lane id="1/2to1/1_0" index="0" length="290.50" shape="298.35,595.25 298.35,304.75" speed="13.90"/>
    </edge>
    <edge from="1/2" id="1/2to1/3" priority="-1" to="1/3">
        <lane id="1/2to1/3_0" index="0" length="290.50" shape="301.65,604.75 301.65,895.25" speed="13.90"/>
    </edge>
    <edge from="1/2" id="1/2to2/2" priority="-1" to="2/2">
        <lane id="1/2to2/2_0" index="0" length="290.50" shape="304.75,598.35 595.25,598.35" speed="13.90"/>
    </edge>
    <edge from="1/3" id="1/3to0/3" priority="-1" to="0/3">
        <lane id="1/3to0/3_0" index="0" length="290.50" shape="295.25,901.65 4.75,901.65" speed="13.90"/>
    </edge>
    <edge from="1/3" id="1/3to1/2" priority="-1" to="1/2">
        <lane id="1/3to1/2_0" index="0" length="290.50" shape="298.35,895.25 298.35,604.75" speed="13.90"/>
    </edge>
    <edge from="1/3" id="1/3to1/4" priority="-1" to="1/4">
        <lane id="1/3to1/4_0" index="0" length="290.50" shape="301.65,904.75 301.65,1195.25" speed="13.90"/>
    </edge>
    <edge from="1/3" id="1/3to2/3" priority="-1" to="2/3">
        <lane id="1/3to2/3_0" index="0" length="290.50" shape="304.75,898.35 595.25,898.35" speed="13.90"/>
    </edge>
    <edge from="1/4" id="1/4to0/4" priority="-1" to="0/4">
        <lane id="1/4to0/4_0" index="0" length="292.00" shape="295.25,1201.65 3.25,1201.65" speed="13.90"/>
    </edge>
    <edge from="1/4" id="1/4to1/3" priority="-1" to="1/3">
        <lane id="1/4to1/3_0" index="0" length="290.50" shape="298.35,1195.25 298.35,904.75" speed="13.90"/>
    </edge>
    <edge from="1/4" id="1/4to2/4" priority="-1" to="2/4">
        <lane id="1/4to2/4_0" index="0" length="290.50" shape="304.75,1198.35 595.25,1198.35" speed="13.90"/>
    </edge>
    <edge from="2/0" id="2/0to1/0" priority="-1" to="1/0">
        <lane id="2/0to1/0_0" index="0" length="290.50" shape="595.25,1.65 304.75,1.65" speed="13.90"/>
    </edge>
    <edge from="2/0" id="2/0to2/1" priority="-1" to="2/1">