<?xml version="1.0" encoding="UTF-8" standalone="no"?><!-- generated on Thu Dec 29 23:57:13 2016 by SUMO netgenerate Version 0.25.0
<?xml version="1.0" encoding="UTF-8"?>

<configuration xmlns:xsi="http://www.w3.org/2001/XMLSchema-instance" xsi:noNamespaceSchemaLocation="http://sumo.dlr.de/xsd/netgenerateConfiguration.xsd">

    <grid_network>
        <grid value="true"/>
        <grid.length value="200"/>
        <grid.x-number value="5"/>
        <grid.y-number value="5"/>
    </grid_network>

    <output>
        <output-file value="net.net.xml"/>
    </output>

    <processing>
        <no-turnarounds value="true"/>
        <no-left-connections value="true"/>
    </processing>

    <building_defaults>
        <default-junction-type value="traffic_light"/>
    </building_defaults>

</configuration>
--><net xmlns:xsi="http://www.w3.org/2001/XMLSchema-instance" version="0.25" xsi:noNamespaceSchemaLocation="http://sumo.dlr.de/xsd/net_file.xsd">

    <location convBoundary="0.00,0.00,800.00,800.00" netOffset="0.00,0.00" origBoundary="0.00,0.00,800.00,800.00" projParameter="!"/>

    <edge function="internal" id=":0/0_0">
        <lane id=":0/0_0_0" index="0" length="7.90" shape="-1.65,3.25 -1.34,1.11 -0.43,-0.43 1.11,-1.34 3.25,-1.65" speed="13.90"/>
    </edge>
    <edge function="internal" id=":0/0_1">
        <lane id=":0/0_1_0" index="0" length="2.58" shape="3.25,1.65 2.55,1.75 2.05,2.05 1.75,2.55 1.65,3.25" speed="13.90"/>
    </edge>
    <edge function="internal" id=":0/1_0">
        <lane id=":0/1_0_0" index="0" length="9.50" shape="-1.65,204.75 -1.65,195.25" speed="13.90"/>
    </edge>
    <edge function="internal" id=":0/1_1">
        <lane id=":0/1_1_0" index="0" length="5.00" shape="4.75,201.65 3.39,201.84 2.43,202.43 1.84,203.39 1.65,204.75" speed="13.90"/>
    </edge>
    <edge function="internal" id=":0/1_2">
        <lane id=":0/1_2_0" index="0" length="5.00" shape="1.65,195.25 1.84,196.61 2.42,197.58 3.39,198.16 4.75,198.35" speed="13.90"/>
    </edge>
    <edge function="internal" id=":0/1_3">
        <lane id=":0/1_3_0" index="0" length="9.50" shape="1.65,195.25 1.65,204.75" speed="13.90"/>
    </edge>
    <edge function="internal" id=":0/2_0">
        <lane id=":0/2_0_0" index="0" length="9.50" shape="-1.65,404.75 -1.65,395.25" speed="13.90"/>
    </edge>
    <edge function="internal" id=":0/2_1">
        <lane id=":0/2_1_0" index="0" length="5.00" shape="4.75,401.65 3.39,401.84 2.43,402.42 1.84,403.39 1.65,404.75" speed="13.90"/>
    </edge>
    <edge function="internal" id=":0/2_2">
        <lane id=":0/2_2_0" index="0" length="5.00" shape="1.65,395.25 1.84,396.61 2.42,397.58 3.39,398.16 4.75,398.35" speed="13.90"/>
    </edge>
    <edge function="internal" id=":0/2_3">
        <lane id=":0/2_3_0" index="0" length="9.50" shape="1.65,395.25 1.65,404.75" speed="13.90"/>
    </edge>
    <edge function="internal" id=":0/3_0">
        <lane id=":0/3_0_0" index="0" length="9.50" shape="-1.65,604.75 -1.65,595.25" speed="13.90"/>
    </edge>
    <edge function="internal" id=":0/3_1">
        <lane id=":0/3_1_0" index="0" length="5.00" shape="4.75,601.65 3.39,601.84 2.43,602.42 1.84,603.39 1.65,604.75" speed="13.90"/>
    </edge>
    <edge function="internal" id=":0/3_2">
        <lane id=":0/3_2_0" index="0" length="5.00" shape="1.65,595.25 1.84,596.61 2.42,597.58 3.39,598.16 4.75,598.35" speed="13.90"/>
    </edge>
    <edge function="internal" id=":0/3_3">
        <lane id=":0/3_3_0" index="0" length="9.50" shape="1.65,595.25 1.65,604.75" speed="13.90"/>
    </edge>
    <edge function="internal" id=":0/4_0">
        <lane id=":0/4_0_0" index="0" length="7.90" shape="3.25,801.65 1.11,801.34 -0.43,800.42 -1.34,798.89 -1.65,796.75" speed="13.90"/>
    </edge>
    <edge function="internal" id=":0/4_1">
        <lane id=":0/4_1_0" index="0" length="2.58" shape="1.65,796.75 1.75,797.45 2.05,797.95 2.55,798.25 3.25,798.35" speed="13.90"/>
    </edge>
    <edge function="internal" id=":1/0_0">
        <lane id=":1/0_0_0" index="0" length="5.00" shape="198.35,4.75 198.16,3.39 197.57,2.43 196.61,1.84 195.25,1.65" speed="13.90"/>
    </edge>
    <edge function="internal" id=":1/0_1">
        <lane id=":1/0_1_0" index="0" length="5.00" shape="204.75,1.65 203.39,1.84 202.42,2.42 201.84,3.39 201.65,4.75" speed="13.90"/>
    </edge>
    <edge function="internal" id=":1/0_2">
        <lane id=":1/0_2_0" index="0" length="9.50" shape="204.75,1.65 195.25,1.65" speed="13.90"/>
    </edge>
    <edge function="internal" id=":1/0_3">
        <lane id=":1/0_3_0" index="0" length="9.50" shape="195.25,-1.65 204.75,-1.65" speed="13.90"/>
    </edge>
    <edge function="internal" id=":1/1_0">
        <lane id=":1/1_0_0" index="0" length="5.00" shape="198.35,204.75 198.16,203.39 197.57,202.42 196.61,201.84 195.25,201.65" speed="13.90"/>
    </edge>
    <edge function="internal" id=":1/1_1">
        <lane id=":1/1_1_0" index="0" length="9.50" shape="198.35,204.75 198.35,195.25" speed="13.90"/>
    </edge>
    <edge function="internal" id=":1/1_2">
        <lane id=":1/1_2_0" index="0" length="5.00" shape="204.75,201.65 203.39,201.84 202.42,202.43 201.84,203.39 201.65,204.75" speed="13.90"/>
    </edge>
    <edge function="internal" id=":1/1_3">
        <lane id=":1/1_3_0" index="0" length="9.50" shape="204.75,201.65 195.25,201.65" speed="13.90"/>
    </edge>
    <edge function="internal" id=":1/1_4">
        <lane id=":1/1_4_0" index="0" length="5.00" shape="201.65,195.25 201.84,196.61 202.43,197.58 203.39,198.16 204.75,198.35" speed="13.90"/>
    </edge>
    <edge function="internal" id=":1/1_5">
        <lane id=":1/1_5_0" index="0" length="9.50" shape="201.65,195.25 201.65,204.75" speed="13.90"/>
    </edge>
    <edge function="internal" id=":1/1_6">
        <lane id=":1/1_6_0" index="0" length="5.00" shape="195.25,198.35 196.61,198.16 197.58,197.57 198.16,196.61 198.35,195.25" speed="13.90"/>
    </edge>
    <edge function="internal" id=":1/1_7">
        <lane id=":1/1_7_0" index="0" length="9.50" shape="195.25,198.35 204.75,198.35" speed="13.90"/>
    </edge>
    <edge function="internal" id=":1/2_0">
        <lane id=":1/2_0_0" index="0" length="5.00" shape="198.35,404.75 198.16,403.39 197.57,402.42 196.61,401.84 195.25,401.65" speed="13.90"/>
    </edge>
    <edge function="internal" id=":1/2_1">
        <lane id=":1/2_1_0" index="0" length="9.50" shape="198.35,404.75 198.35,395.25" speed="13.90"/>
    </edge>
    <edge function="internal" id=":1/2_2">
        <lane id=":1/2_2_0" index="0" length="5.00" shape="204.75,401.65 203.39,401.84 202.42,402.42 201.84,403.39 201.65,404.75" speed="13.90"/>
    </edge>
    <edge function="internal" id=":1/2_3">
        <lane id=":1/2_3_0" index="0" length="9.50" shape="204.75,401.65 195.25,401.65" speed="13.90"/>
    </edge>
    <edge function="internal" id=":1/2_4">
        <lane id=":1/2_4_0" index="0" length="5.00" shape="201.65,395.25 201.84,396.61 202.43,397.58 203.39,398.16 204.75,398.35" speed="13.90"/>
    </edge>
    <edge function="internal" id=":1/2_5">
        <lane id=":1/2_5_0" index="0" length="9.50" shape="201.65,395.25 201.65,404.75" speed="13.90"/>
    </edge>
    <edge function="internal" id=":1/2_6">
        <lane id=":1/2_6_0" index="0" length="5.00" shape="195.25,398.35 196.61,398.16 197.58,397.58 198.16,396.61 198.35,395.25" speed="13.90"/>
    </edge>
    <edge function="internal" id=":1/2_7">
        <lane id=":1/2_7_0" index="0" length="9.50" shape="195.25,398.35 204.75,398.35" speed="13.90"/>
    </edge>
    <edge function="internal" id=":1/3_0">
        <lane id=":1/3_0_0" index="0" length="5.00" shape="198.35,604.75 198.16,603.39 197.57,602.42 196.61,601.84 195.25,601.65" speed="13.90"/>
    </edge>
    <edge function="internal" id=":1/3_1">
        <lane id=":1/3_1_0" index="0" length="9.50" shape="198.35,604.75 198.35,595.25" speed="13.90"/>
    </edge>
    <edge function="internal" id=":1/3_2">
        <lane id=":1/3_2_0" index="0" length="5.00" shape="204.75,601.65 203.39,601.84 202.42,602.42 201.84,603.39 201.65,604.75" speed="13.90"/>
    </edge>
    <edge function="internal" id=":1/3_3">
        <lane id=":1/3_3_0" index="0" length="9.50" shape="204.75,601.65 195.25,601.65" speed="13.90"/>
    </edge>
    <edge function="internal" id=":1/3_4">
        <lane id=":1/3_4_0" index="0" length="5.00" shape="201.65,595.25 201.84,596.61 202.43,597.58 203.39,598.16 204.75,598.35" speed="13.90"/>
    </edge>
    <edge function="internal" id=":1/3_5">
        <lane id=":1/3_5_0" index="0" length="9.50" shape="201.65,595.25 201.65,604.75" speed="13.90"/>
    </edge>
    <edge function="internal" id=":1/3_6">
        <lane id=":1/3_6_0" index="0" length="5.00" shape="195.25,598.35 196.61,598.16 197.58,597.58 198.16,596.61 198.35,595.25" speed="13.90"/>
    </edge>
    <edge function="internal" id=":1/3_7">
        <lane id=":1/3_7_0" index="0" length="9.50" shape="195.25,598.35 204.75,598.35" speed="13.90"/>
    </edge>
    <edge function="internal" id=":1/4_0">
        <lane id=":1/4_0_0" index="0" length="9.50" shape="204.75,801.65 195.25,801.65" speed="13.90"/>
    </edge>
    <edge function="internal" id=":1/4_1">
        <lane id=":1/4_1_0" index="0" length="5.00" shape="201.65,795.25 201.84,796.61 202.43,797.57 203.39,798.16 204.75,798.35" speed="13.90"/>
    </edge>
    <edge function="internal" id=":1/4_2">
        <lane id=":1/4_2_0" index="0" length="5.00" shape="195.25,798.35 196.61,798.16 197.58,797.58 198.16,796.61 198.35,795.25" speed="13.90"/>
    </edge>
    <edge function="internal" id=":1/4_3">
        <lane id=":1/4_3_0" index="0" length="9.50" shape="195.25,798.35 204.75,798.35" speed="13.90"/>
    </edge>
    <edge function="internal" id=":2/0_0">
        <lane id=":2/0_0_0" index="0" length="5.00" shape="398.35,4.75 398.16,3.39 397.58,2.43 396.61,1.84 395.25,1.65" speed="13.90"/>
    </edge>
    <edge function="internal" id=":2/0_1">
        <lane id=":2/0_1_0" index="0" length="5.00" shape="404.75,1.65 403.39,1.84 402.42,2.42 401.84,3.39 401.65,4.75" speed="13.90"/>
    </edge>
    <edge function="internal" id=":2/0_2">
        <lane id=":2/0_2_0" index="0" length="9.50" shape="404.75,1.65 395.25,1.65" speed="13.90"/>
    </edge>
    <edge function="internal" id=":2/0_3">
        <lane id=":2/0_3_0" index="0" length="9.50" shape="395.25,-1.65 404.75,-1.65" speed="13.90"/>
    </edge>
    <edge function="internal" id=":2/1_0">
        <lane id=":2/1_0_0" index="0" length="5.00" shape="398.35,204.75 398.16,203.39 397.58,202.42 396.61,201.84 395.25,201.65" speed="13.90"/>
    </edge>
    <edge function="internal" id=":2/1_1">
        <lane id=":2/1_1_0" index="0" length="9.50" shape="398.35,204.75 398.35,195.25" speed="13.90"/>
    </edge>
    <edge function="internal" id=":2/1_2">
        <lane id=":2/1_2_0" index="0" length="5.00" shape="404.75,201.65 403.39,201.84 402.42,202.43 401.84,203.39 401.65,204.75" speed="13.90"/>
    </edge>
    <edge function="internal" id=":2/1_3">
        <lane id=":2/1_3_0" index="0" length="9.50" shape="404.75,201.65 395.25,201.65" speed="13.90"/>
    </edge>
    <edge function="internal" id=":2/1_4">
        <lane id=":2/1_4_0" index="0" length="5.00" shape="401.65,195.25 401.84,196.61 402.42,197.58 403.39,198.16 404.75,198.35" speed="13.90"/>
    </edge>
    <edge function="internal" id=":2/1_5">
        <lane id=":2/1_5_0" index="0" length="9.50" shape="401.65,195.25 401.65,204.75" speed="13.90"/>
    </edge>
    <edge function="internal" id=":2/1_6">
        <lane id=":2/1_6_0" index="0" length="5.00" shape="395.25,198.35 396.61,198.16 397.58,197.57 398.16,196.61 398.35,195.25" speed="13.90"/>
    </edge>
    <edge function="internal" id=":2/1_7">
        <lane id=":2/1_7_0" index="0" length="9.50" shape="395.25,198.35 404.75,198.35" speed="13.90"/>
    </edge>
    <edge function="internal" id=":2/2_0">
        <lane id=":2/2_0_0" index="0" length="5.00" shape="398.35,404.75 398.16,403.39 397.58,402.42 396.61,401.84 395.25,401.65" speed="13.90"/>
    </edge>
    <edge function="internal" id=":2/2_1">
        <lane id=":2/2_1_0" index="0" length="9.50" shape="398.35,404.75 398.35,395.25" speed="13.90"/>
    </edge>
    <edge function="internal" id=":2/2_2">
        <lane id=":2/2_2_0" index="0" length="5.00" shape="404.75,401.65 403.39,401.84 402.42,402.42 401.84,403.39 401.65,404.75" speed="13.90"/>
    </edge>
    <edge function="internal" id=":2/2_3">
        <lane id=":2/2_3_0" index="0" length="9.50" shape="404.75,401.65 395.25,401.65" speed="13.90"/>
    </edge>
    <edge function="internal" id=":2/2_4">
        <lane id=":2/2_4_0" index="0" length="5.00" shape="401.65,395.25 401.84,396.61 402.42,397.58 403.39,398.16 404.75,398.35" speed="13.90"/>
    </edge>
    <edge function="internal" id=":2/2_5">
        <lane id=":2/2_5_0" index="0" length="9.50" shape="401.65,395.25 401.65,404.75" speed="13.90"/>
    </edge>
    <edge function="internal" id=":2/2_6">
        <lane id=":2/2_6_0" index="0" length="5.00" shape="395.25,398.35 396.61,398.16 397.58,397.58 398.16,396.61 398.35,395.25" speed="13.90"/>
    </edge>
    <edge function="internal" id=":2/2_7">
        <lane id=":2/2_7_0" index="0" length="9.50" shape="395.25,398.35 404.75,398.35" speed="13.90"/>
    </edge>
    <edge function="internal" id=":2/3_0">
        <lane id=":2/3_0_0" index="0" length="5.00" shape="398.35,604.75 398.16,603.39 397.58,602.42 396.61,601.84 395.25,601.65" speed="13.90"/>
    </edge>
    <edge function="internal" id=":2/3_1">
        <lane id=":2/3_1_0" index="0" length="9.50" shape="398.35,604.75 398.35,595.25" speed="13.90"/>
    </edge>
    <edge function="internal" id=":2/3_2">
        <lane id=":2/3_2_0" index="0" length="5.00" shape="404.75,601.65 403.39,601.84 402.42,602.42 401.84,603.39 401.65,604.75" speed="13.90"/>
    </edge>
    <edge function="internal" id=":2/3_3">
        <lane id=":2/3_3_0" index="0" length="9.50" shape="404.75,601.65 395.25,601.65" speed="13.90"/>
    </edge>
    <edge function="internal" id=":2/3_4">
        <lane id=":2/3_4_0" index="0" length="5.00" shape="401.65,595.25 401.84,596.61 402.42,597.58 403.39,598.16 404.75,598.35" speed="13.90"/>
    </edge>
    <edge function="internal" id=":2/3_5">
        <lane id=":2/3_5_0" index="0" length="9.50" shape="401.65,595.25 401.65,604.75" speed="13.90"/>
    </edge>
    <edge function="internal" id=":2/3_6">
        <lane id=":2/3_6_0" index="0" length="5.00" shape="395.25,598.35 396.61,598.16 397.58,597.58 398.16,596.61 398.35,595.25" speed="13.90"/>
    </edge>
    <edge function="internal" id=":2/3_7">
        <lane id=":2/3_7_0" index="0" length="9.50" shape="395.25,598.35 404.75,598.35" speed="13.90"/>
    </edge>
    <edge function="internal" id=":2/4_0">
        <lane id=":2/4_0_0" index="0" length="9.50" shape="404.75,801.65 395.25,801.65" speed="13.90"/>
    </edge>
    <edge function="internal" id=":2/4_1">
        <lane id=":2/4_1_0" index="0" length="5.00" shape="401.65,795.25 401.84,796.61 402.42,797.57 403.39,798.16 404.75,798.35" speed="13.90"/>
    </edge>
    <edge function="internal" id=":2/4_2">
        <lane id=":2/4_2_0" index="0" length="5.00" shape="395.25,798.35 396.61,798.16 397.58,797.58 398.16,796.61 398.35,795.25" speed="13.90"/>
    </edge>
    <edge function="internal" id=":2/4_3">
        <lane id=":2/4_3_0" index="0" length="9.50" shape="395.25,798.35 404.75,798.35" speed="13.90"/>
    </edge>
    <edge function="internal" id=":3/0_0">
        <lane id=":3/0_0_0" index="0" length="5.00" shape="598.35,4.75 598.16,3.39 597.58,2.43 596.61,1.84 595.25,1.65" speed="13.90"/>
    </edge>
    <edge function="internal" id=":3/0_1">
        <lane id=":3/0_1_0" index="0" length="5.00" shape="604.75,1.65 603.39,1.84 602.42,2.42 601.84,3.39 601.65,4.75" speed="13.90"/>
    </edge>
    <edge function="internal" id=":3/0_2">
        <lane id=":3/0_2_0" index="0" length="9.50" shape="604.75,1.65 595.25,1.65" speed="13.90"/>
    </edge>
    <edge function="internal" id=":3/0_3">
        <lane id=":3/0_3_0" index="0" length="9.50" shape="595.25,-1.65 604.75,-1.65" speed="13.90"/>
    </edge>
    <edge function="internal" id=":3/1_0">
        <lane id=":3/1_0_0" index="0" length="5.00" shape="598.35,204.75 598.16,203.39 597.58,202.42 596.61,201.84 595.25,201.65" speed="13.90"/>
    </edge>
    <edge function="internal" id=":3/1_1">
        <lane id=":3/1_1_0" index="0" length="9.50" shape="598.35,204.75 598.35,195.25" speed="13.90"/>
    </edge>
    <edge function="internal" id=":3/1_2">
        <lane id=":3/1_2_0" index="0" length="5.00" shape="604.75,201.65 603.39,201.84 602.42,202.43 601.84,203.39 601.65,204.75" speed="13.90"/>
    </edge>
    <edge function="internal" id=":3/1_3">
        <lane id=":3/1_3_0" index="0" length="9.50" shape="604.75,201.65 595.25,201.65" speed="13.90"/>
    </edge>
    <edge function="internal" id=":3/1_4">
        <lane id=":3/1_4_0" index="0" length="5.00" shape="601.65,195.25 601.84,196.61 602.42,197.58 603.39,198.16 604.75,198.35" speed="13.90"/>
    </edge>
    <edge function="internal" id=":3/1_5">
        <lane id=":3/1_5_0" index="0" length="9.50" shape="601.65,195.25 601.65,204.75" speed="13.90"/>
    </edge>
    <edge function="internal" id=":3/1_6">
        <lane id=":3/1_6_0" index="0" length="5.00" shape="595.25,198.35 596.61,198.16 597.58,197.57 598.16,196.61 598.35,195.25" speed="13.90"/>
    </edge>
    <edge function="internal" id=":3/1_7">
        <lane id=":3/1_7_0" index="0" length="9.50" shape="595.25,198.35 604.75,198.35" speed="13.90"/>
    </edge>
    <edge function="internal" id=":3/2_0">
        <lane id=":3/2_0_0" index="0" length="5.00" shape="598.35,404.75 598.16,403.39 597.58,402.42 596.61,401.84 595.25,401.65" speed="13.90"/>
    </edge>
    <edge function="internal" id=":3/2_1">
        <lane id=":3/2_1_0" index="0" length="9.50" shape="598.35,404.75 598.35,395.25" speed="13.90"/>
    </edge>
    <edge function="internal" id=":3/2_2">
        <lane id=":3/2_2_0" index="0" length="5.00" shape="604.75,401.65 603.39,401.84 602.42,402.42 601.84,403.39 601.65,404.75" speed="13.90"/>
    </edge>
    <edge function="internal" id=":3/2_3">
        <lane id=":3/2_3_0" index="0" length="9.50" shape="604.75,401.65 595.25,401.65" speed="13.90"/>
    </edge>
    <edge function="internal" id=":3/2_4">
        <lane id=":3/2_4_0" index="0" length="5.00" shape="601.65,395.25 601.84,396.61 602.42,397.58 603.39,398.16 604.75,398.35" speed="13.90"/>
    </edge>
    <edge function="internal" id=":3/2_5">
        <lane id=":3/2_5_0" index="0" length="9.50" shape="601.65,395.25 601.65,404.75" speed="13.90"/>
    </edge>
    <edge function="internal" id=":3/2_6">
        <lane id=":3/2_6_0" index="0" length="5.00" shape="595.25,398.35 596.61,398.16 597.58,397.58 598.16,396.61 598.35,395.25" speed="13.90"/>
    </edge>
    <edge function="internal" id=":3/2_7">
        <lane id=":3/2_7_0" index="0" length="9.50" shape="595.25,398.35 604.75,398.35" speed="13.90"/>
    </edge>
    <edge function="internal" id=":3/3_0">
        <lane id=":3/3_0_0" index="0" length="5.00" shape="598.35,604.75 598.16,603.39 597.58,602.42 596.61,601.84 595.25,601.65" speed="13.90"/>
    </edge>
    <edge function="internal" id=":3/3_1">
        <lane id=":3/3_1_0" index="0" length="9.50" shape="598.35,604.75 598.35,595.25" speed="13.90"/>
    </edge>
    <edge function="internal" id=":3/3_2">
        <lane id=":3/3_2_0" index="0" length="5.00" shape="604.75,601.65 603.39,601.84 602.42,602.42 601.84,603.39 601.65,604.75" speed="13.90"/>
    </edge>
    <edge function="internal" id=":3/3_3">
        <lane id=":3/3_3_0" index="0" length="9.50" shape="604.75,601.65 595.25,601.65" speed="13.90"/>
    </edge>
    <edge function="internal" id=":3/3_4">
        <lane id=":3/3_4_0" index="0" length="5.00" shape="601.65,595.25 601.84,596.61 602.42,597.58 603.39,598.16 604.75,598.35" speed="13.90"/>
    </edge>
    <edge function="internal" id=":3/3_5">
        <lane id=":3/3_5_0" index="0" length="9.50" shape="601.65,595.25 601.65,604.75" speed="13.90"/>
    </edge>
    <edge function="internal" id=":3/3_6">
        <lane id=":3/3_6_0" index="0" length="5.00" shape="595.25,598.35 596.61,598.16 597.58,597.58 598.16,596.61 598.35,595.25" speed="13.90"/>
    </edge>
    <edge function="internal" id=":3/3_7">
        <lane id=":3/3_7_0" index="0" length="9.50" shape="595.25,598.35 604.75,598.35" speed="13.90"/>
    </edge>
    <edge function="internal" id=":3/4_0">
        <lane id=":3/4_0_0" index="0" length="9.50" shape="604.75,801.65 595.25,801.65" speed="13.90"/>
    </edge>
    <edge function="internal" id=":3/4_1">
        <lane id=":3/4_1_0" index="0" length="5.00" shape="601.65,795.25 601.84,796.61 602.42,797.57 603.39,798.16 604.75,798.35" speed="13.90"/>
    </edge>
    <edge function="internal" id=":3/4_2">
        <lane id=":3/4_2_0" index="0" length="5.00" shape="595.25,798.35 596.61,798.16 597.58,797.58 598.16,796.61 598.35,795.25" speed="13.90"/>
    </edge>
    <edge function="internal" id=":3/4_3">
        <lane id=":3/4_3_0" index="0" length="9.50" shape="595.25,798.35 604.75,798.35" speed="13.90"/>
    </edge>
    <edge function="internal" id=":4/0_0">
        <lane id=":4/0_0_0" index="0" length="2.58" shape="798.35,3.25 798.25,2.55 797.95,2.05 797.45,1.75 796.75,1.65" speed="13.90"/>
    </edge>
    <edge function="internal" id=":4/0_1">
        <lane id=":4/0_1_0" index="0" length="7.90" shape="796.75,-1.65 798.89,-1.34 800.43,-0.43 801.34,1.11 801.65,3.25" speed="13.90"/>
    </edge>
    <edge function="internal" id=":4/1_0">
        <lane id=":4/1_0_0" index="0" length="5.00" shape="798.35,204.75 798.16,203.39 797.58,202.42 796.61,201.84 795.25,201.65" speed="13.90"/>
    </edge>
    <edge function="internal" id=":4/1_1">
        <lane id=":4/1_1_0" index="0" length="9.50" shape="798.35,204.75 798.35,195.25" speed="13.90"/>
    </edge>
    <edge function="internal" id=":4/1_2">
        <lane id=":4/1_2_0" index="0" length="9.50" shape="801.65,195.25 801.65,204.75" speed="13.90"/>
    </edge>
    <edge function="internal" id=":4/1_3">
        <lane id=":4/1_3_0" index="0" length="5.00" shape="795.25,198.35 796.61,198.16 797.57,197.57 798.16,196.61 798.35,195.25" speed="13.90"/>
    </edge>
    <edge function="internal" id=":4/2_0">
        <lane id=":4/2_0_0" index="0" length="5.00" shape="798.35,404.75 798.16,403.39 797.58,402.42 796.61,401.84 795.25,401.65" speed="13.90"/>
    </edge>
    <edge function="internal" id=":4/2_1">
        <lane id=":4/2_1_0" index="0" length="9.50" shape="798.35,404.75 798.35,395.25" speed="13.90"/>
    </edge>
    <edge function="internal" id=":4/2_2">
        <lane id=":4/2_2_0" index="0" length="9.50" shape="801.65,395.25 801.65,404.75" speed="13.90"/>
    </edge>
    <edge function="internal" id=":4/2_3">
        <lane id=":4/2_3_0" index="0" length="5.00" shape="795.25,398.35 796.61,398.16 797.57,397.58 798.16,396.61 798.35,395.25" speed="13.90"/>
    </edge>
    <edge function="internal" id=":4/3_0">
        <lane id=":4/3_0_0" index="0" length="5.00" shape="798.35,604.75 798.16,603.39 797.58,602.42 796.61,601.84 795.25,601.65" speed="13.90"/>
    </edge>
    <edge function="internal" id=":4/3_1">
        <lane id=":4/3_1_0" index="0" length="9.50" shape="798.35,604.75 798.35,595.25" speed="13.90"/>
    </edge>
    <edge function="internal" id=":4/3_2">
        <lane id=":4/3_2_0" index="0" length="9.50" shape="801.65,595.25 801.65,604.75" speed="13.90"/>
    </edge>
    <edge function="internal" id=":4/3_3">
        <lane id=":4/3_3_0" index="0" length="5.00" shape="795.25,598.35 796.61,598.16 797.57,597.58 798.16,596.61 798.35,595.25" speed="13.90"/>
    </edge>
    <edge function="internal" id=":4/4_0">
        <lane id=":4/4_0_0" index="0" length="7.90" shape="801.65,796.75 801.34,798.89 800.42,800.43 798.89,801.34 796.75,801.65" speed="13.90"/>
    </edge>
    <edge function="internal" id=":4/4_1">
        <lane id=":4/4_1_0" index="0" length="2.58" shape="796.75,798.35 797.45,798.25 797.95,797.95 798.25,797.45 798.35,796.75" speed="13.90"/>
    </edge>

    <edge from="0/0" id="0/0to0/1" priority="-1" to="0/1">
        <lane id="0/0to0/1_0" index="0" length="192.00" shape="1.65,3.25 1.65,195.25" speed="13.90"/>
    </edge>
    <edge from="0/0" id="0/0to1/0" priority="-1" to="1/0">
        <lane id="0/0to1/0_0" index="0" length="192.00" shape="3.25,-1.65 195.25,-1.65" speed="13.90"/>
    </edge>
    <edge from="0/1" id="0/1to0/0" priority="-1" to="0/0">
        <lane id="0/1to0/0_0" index="0" length="192.00" shape="-1.65,195.25 -1.65,3.25" speed="13.90"/>
    </edge>
    <edge from="0/1" id="0/1to0/2" priority="-1" to="0/2">
        <lane id="0/1to0/2_0" index="0" length="190.50" shape="1.65,204.75 1.65,395.25" speed="13.90"/>
    </edge>
    <edge from="0/1" id="0/1to1/1" priority="-1" to="1/1">
        <lane id="0/1to1/1_0" index="0" length="190.50" shape="4.75,198.35 195.25,198.35" speed="13.90"/>
    </edge>
    <edge from="0/2" id="0/2to0/1" priority="-1" to="0/1">
        <lane id="0/2to0/1_0" index="0" length="190.50" shape="-1.65,395.25 -1.65,204.75" speed="13.90"/>
    </edge>
    <edge from="0/2" id="0/2to0/3" priority="-1" to="0/3">
        <lane id="0/2to0/3_0" index="0" length="190.50" shape="1.65,404.75 1.65,595.25" speed="13.90"/>
    </edge>
    <edge from="0/2" id="0/2to1/2" priority="-1" to="1/2">
        <lane id="0/2to1/2_0" index="0" length="190.50" shape="4.75,398.35 195.25,398.35" speed="13.90"/>
    </edge>
    <edge from="0/3" id="0/3to0/2" priority="-1" to="0/2">
        <lane id="0/3to0/2_0" index="0" length="190.50" shape="-1.65,595.25 -1.65,404.75" speed="13.90"/>
    </edge>
    <edge from="0/3" id="0/3to0/4" priority="-1" to="0/4">
        <lane id="0/3to0/4_0" index="0" length="192.00" shape="1.65,604.75 1.65,796.75" speed="13.90"/>
    </edge>
    <edge from="0/3" id="0/3to1/3" priority="-1" to="1/3">
        <lane id="0/3to1/3_0" index="0" length="190.50" shape="4.75,598.35 195.25,598.35" speed="13.90"/>
    </edge>
    <edge from="0/4" id="0/4to0/3" priority="-1" to="0/3">
        <lane id="0/4to0/3_0" index="0" length="192.00" shape="-1.65,796.75 -1.65,604.75" speed="13.90"/>
    </edge>
    <edge from="0/4" id="0/4to1/4" priority="-1" to="1/4">
        <lane id="0/4to1/4_0" index="0" length="192.00" shape="3.25,798.35 195.25,798.35" speed="13.90"/>
    </edge>
    <edge from="1/0" id="1/0to0/0" priority="-1" to="0/0">
        <lane id="1/0to0/0_0" index="0" length="192.00" shape="195.25,1.65 3.25,1.65" speed="13.90"/>
    </edge>
    <edge from="1/0" id="1/0to1/1" priority="-1" to="1/1">
        <lane id="1/0to1/1_0" index="0" length="190.50" shape="201.65,4.75 201.65,195.25" speed="13.90"/>
    </edge>
    <edge from="1/0" id="1/0to2/0" priority="-1" to="2/0">
        <lane id="1/0to2/0_0" index="0" length="190.50" shape="204.75,-1.65 395.25,-1.65" speed="13.90"/>
    </edge>
    <edge from="1/1" id="1/1to0/1" priority="-1" to="0/1">
        <lane id="1/1to0/1_0" index="0" length="190.50" shape="195.25,201.65 4.75,201.65" speed="13.90"/>
    </edge>
    <edge from="1/1" id="1/1to1/0" priority="-1" to="1/0">
        <lane id="1/1to1/0_0" index="0" length="190.50" shape="198.35,195.25 198.35,4.75" speed="13.90"/>
    </edge>
    <edge from="1/1" id="1/1to1/2" priority="-1" to="1/2">
        <lane id="1/1to1/2_0" index="0" length="190.50" shape="201.65,204.75 201.65,395.25" speed="13.90"/>
    </edge>
    <edge from="1/1" id="1/1to2/1" priority="-1" to="2/1">
        <lane id="1/1to2/1_0" index="0" length="190.50" shape="204.75,198.35 395.25,198.35" speed="13.90"/>
    </edge>
    <edge from="1/2" id="1/2to0/2" priority="-1" to="0/2">
        <lane id="1/2to0/2_0" index="0" length="190.50" shape="195.25,401.65 4.75,401.65" speed="13.90"/>
    </edge>
    <edge from="1/2" id="1/2to1/1" priority="-1" to="1/1">
        <lane id="1/2to1/1_0" index="0" length="190.50" shape="198.35,395.25 198.35,204.75" speed="13.90"/>
    </edge>
    <edge from="1/2" id="1/2to1/3" priority="-1" to="1/3">
        <lane id="1/2to1/3_0" index="0" length="190.50" shape="201.65,404.75 201.65,595.25" speed="13.90"/>
    </edge>
    <edge from="1/2" id="1/2to2/2" priority="-1" to="2/2">
        <lane id="1/2to2/2_0" index="0" length="190.50" shape="204.75,398.35 395.25,398.35" speed="13.90"/>
    </edge>
    <edge from="1/3" id="1/3to0/3" priority="-1" to="0/3">
        <lane id="1/3to0/3_0" index="0" length="190.50" shape="195.25,601.65 4.75,601.65" speed="13.90"/>
    </edge>
    <edge from="1/3" id="1/3to1/2" priority="-1" to="1/2">
        <lane id="1/3to1/2_0" index="0" length="190.50" shape="198.35,595.25 198.35,404.75" speed="13.90"/>
    </edge>
    <edge from="1/3" id="1/3to1/4" priority="-1" to="1/4">
        <lane id="1/3to1/4_0" index="0" length="190.50" shape="201.65,604.75 201.65,795.25" speed="13.90"/>
    </edge>
    <edge from="1/3" id="1/3to2/3" priority="-1" to="2/3">
        <lane id="1/3to2/3_0" index="0" length="190.50" shape="204.75,598.35 395.25,598.35" speed="13.90"/>
    </edge>
    <edge from="1/4" id="1/4to0/4" priority="-1" to="0/4">
        <lane id="1/4to0/4_0" index="0" length="192.00" shape="195.25,801.65 3.25,801.65" speed="13.90"/>
    </edge>
    <edge from="1/4" id="1/4to1/3" priority="-1" to="1/3">
        <lane id="1/4to1/3_0" index="0" length="190.50" shape="198.35,795.25 198.35,604.75" speed="13.90"/>
    </edge>
    <edge from="1/4" id="1/4to2/4" priority="-1" to="2/4">
        <lane id="1/4to2/4_0" index="0" length="190.50" shape="204.75,798.35 395.25,798.35" speed="13.90"/>
    </edge>
    <edge from="2/0" id="2/0to1/0" priority="-1" to="1/0">
        <lane id="2/0to1/0_0" index="0" length="190.50" shape="395.25,1.65 204.75,1.65" speed="13.90"/>
    </edge>
    <edge from="2/0" id="2/0to2/1" priority="-1" to="2/1">
        <lane id="2/0to2/1_0" index="0" length="190.50" shape="401.65,4.75 401.65,195.25" speed="13.90"/>
    </edge>
    <edge from="2/0" id="2/0to3/0" priority="-1" to="3/0">