<?xml version="1.0" encoding="UTF-8" standalone="no"?><!-- generated on Sun Jan  1 19:15:09 2017 by SUMO netgenerate Version 0.25.0
<?xml version="1.0" encoding="UTF-8"?>

<configuration xmlns:xsi="http://www.w3.org/2001/XMLSchema-instance" xsi:noNamespaceSchemaLocation="http://sumo.dlr.de/xsd/netgenerateConfiguration.xsd">

    <grid_network>
        <grid value="true"/>
        <grid.length value="500"/>
        <grid.x-number value="5"/>
        <grid.y-number value="5"/>
    </grid_network>

    <output>
        <output-file value="net.net.xml"/>
    </output>

    <processing>
        <no-turnarounds value="true"/>
        <no-left-connections value="true"/>
    </processing>

    <building_defaults>
        <default-junction-type value="traffic_light"/>
    </building_defaults>

</configuration>
--><net xmlns:xsi="http://www.w3.org/2001/XMLSchema-instance" version="0.25" xsi:noNamespaceSchemaLocation="http://sumo.dlr.de/xsd/net_file.xsd">

    <location convBoundary="0.00,0.00,2000.00,2000.00" netOffset="0.00,0.00" origBoundary="0.00,0.00,2000.00,2000.00" projParameter="!"/>

    <edge function="internal" id=":0/0_0">
        <lane id=":0/0_0_0" index="0" length="7.90" shape="-1.65,3.25 -1.34,1.11 -0.43,-0.43 1.11,-1.34 3.25,-1.65" speed="13.90"/>
    </edge>
    <edge function="internal" id=":0/0_1">
        <lane id=":0/0_1_0" index="0" length="2.58" shape="3.25,1.65 2.55,1.75 2.05,2.05 1.75,2.55 1.65,3.25" speed="13.90"/>
    </edge>
    <edge function="internal" id=":0/1_0">
        <lane id=":0/1_0_0" index="0" length="9.50" shape="-1.65,504.75 -1.65,495.25" speed="13.90"/>
    </edge>
    <edge function="internal" id=":0/1_1">
        <lane id=":0/1_1_0" index="0" length="5.00" shape="4.75,501.65 3.39,501.84 2.43,502.42 1.84,503.39 1.65,504.75" speed="13.90"/>
    </edge>
    <edge function="internal" id=":0/1_2">
        <lane id=":0/1_2_0" index="0" length="5.00" shape="1.65,495.25 1.84,496.61 2.42,497.58 3.39,498.16 4.75,498.35" speed="13.90"/>
    </edge>
    <edge function="internal" id=":0/1_3">
        <lane id=":0/1_3_0" index="0" length="9.50" shape="1.65,495.25 1.65,504.75" speed="13.90"/>
    </edge>
    <edge function="internal" id=":0/2_0">
        <lane id=":0/2_0_0" index="0" length="9.50" shape="-1.65,1004.75 -1.65,995.25" speed="13.90"/>
    </edge>
    <edge function="internal" id=":0/2_1">
        <lane id=":0/2_1_0" index="0" length="5.00" shape="4.75,1001.65 3.39,1001.84 2.43,1002.42 1.84,1003.39 1.65,1004.75" speed="13.90"/>
    </edge>
    <edge function="internal" id=":0/2_2">
        <lane id=":0/2_2_0" index="0" length="5.00" shape="1.65,995.25 1.84,996.61 2.42,997.57 3.39,998.16 4.75,998.35" speed="13.90"/>
    </edge>
    <edge function="internal" id=":0/2_3">
        <lane id=":0/2_3_0" index="0" length="9.50" shape="1.65,995.25 1.65,1004.75" speed="13.90"/>
    </edge>
    <edge function="internal" id=":0/3_0">
        <lane id=":0/3_0_0" index="0" length="9.50" shape="-1.65,1504.75 -1.65,1495.25" speed="13.90"/>
    </edge>
    <edge function="internal" id=":0/3_1">
        <lane id=":0/3_1_0" index="0" length="5.00" shape="4.75,1501.65 3.39,1501.84 2.43,1502.43 1.84,1503.39 1.65,1504.75" speed="13.90"/>
    </edge>
    <edge function="internal" id=":0/3_2">
        <lane id=":0/3_2_0" index="0" length="5.00" shape="1.65,1495.25 1.84,1496.61 2.42,1497.57 3.39,1498.16 4.75,1498.35" speed="13.90"/>
    </edge>
    <edge function="internal" id=":0/3_3">
        <lane id=":0/3_3_0" index="0" length="9.50" shape="1.65,1495.25 1.65,1504.75" speed="13.90"/>
    </edge>
    <edge function="internal" id=":0/4_0">
        <lane id=":0/4_0_0" index="0" length="7.90" shape="3.25,2001.65 1.11,2001.34 -0.43,2000.43 -1.34,1998.89 -1.65,1996.75" speed="13.90"/>
    </edge>
    <edge function="internal" id=":0/4_1">
        <lane id=":0/4_1_0" index="0" length="2.58" shape="1.65,1996.75 1.75,1997.45 2.05,1997.95 2.55,1998.25 3.25,1998.35" speed="13.90"/>
    </edge>
    <edge function="internal" id=":1/0_0">
        <lane id=":1/0_0_0" index="0" length="5.00" shape="498.35,4.75 498.16,3.39 497.58,2.43 496.61,1.84 495.25,1.65" speed="13.90"/>
    </edge>
    <edge function="internal" id=":1/0_1">
        <lane id=":1/0_1_0" index="0" length="5.00" shape="504.75,1.65 503.39,1.84 502.42,2.42 501.84,3.39 501.65,4.75" speed="13.90"/>
    </edge>
    <edge function="internal" id=":1/0_2">
        <lane id=":1/0_2_0" index="0" length="9.50" shape="504.75,1.65 495.25,1.65" speed="13.90"/>
    </edge>
    <edge function="internal" id=":1/0_3">
        <lane id=":1/0_3_0" index="0" length="9.50" shape="495.25,-1.65 504.75,-1.65" speed="13.90"/>
    </edge>
    <edge function="internal" id=":1/1_0">
        <lane id=":1/1_0_0" index="0" length="5.00" shape="498.35,504.75 498.16,503.39 497.58,502.42 496.61,501.84 495.25,501.65" speed="13.90"/>
    </edge>
    <edge function="internal" id=":1/1_1">
        <lane id=":1/1_1_0" index="0" length="9.50" shape="498.35,504.75 498.35,495.25" speed="13.90"/>
    </edge>
    <edge function="internal" id=":1/1_2">
        <lane id=":1/1_2_0" index="0" length="5.00" shape="504.75,501.65 503.39,501.84 502.42,502.42 501.84,503.39 501.65,504.75" speed="13.90"/>
    </edge>
    <edge function="internal" id=":1/1_3">
        <lane id=":1/1_3_0" index="0" length="9.50" shape="504.75,501.65 495.25,501.65" speed="13.90"/>
    </edge>
    <edge function="internal" id=":1/1_4">
        <lane id=":1/1_4_0" index="0" length="5.00" shape="501.65,495.25 501.84,496.61 502.42,497.58 503.39,498.16 504.75,498.35" speed="13.90"/>
    </edge>
    <edge function="internal" id=":1/1_5">
        <lane id=":1/1_5_0" index="0" length="9.50" shape="501.65,495.25 501.65,504.75" speed="13.90"/>
    </edge>
    <edge function="internal" id=":1/1_6">
        <lane id=":1/1_6_0" index="0" length="5.00" shape="495.25,498.35 496.61,498.16 497.58,497.58 498.16,496.61 498.35,495.25" speed="13.90"/>
    </edge>
    <edge function="internal" id=":1/1_7">
        <lane id=":1/1_7_0" index="0" length="9.50" shape="495.25,498.35 504.75,498.35" speed="13.90"/>
    </edge>
    <edge function="internal" id=":1/2_0">
        <lane id=":1/2_0_0" index="0" length="5.00" shape="498.35,1004.75 498.16,1003.39 497.58,1002.43 496.61,1001.84 495.25,1001.65" speed="13.90"/>
    </edge>
    <edge function="internal" id=":1/2_1">
        <lane id=":1/2_1_0" index="0" length="9.50" shape="498.35,1004.75 498.35,995.25" speed="13.90"/>
    </edge>
    <edge function="internal" id=":1/2_2">
        <lane id=":1/2_2_0" index="0" length="5.00" shape="504.75,1001.65 503.39,1001.84 502.42,1002.42 501.84,1003.39 501.65,1004.75" speed="13.90"/>
    </edge>
    <edge function="internal" id=":1/2_3">
        <lane id=":1/2_3_0" index="0" length="9.50" shape="504.75,1001.65 495.25,1001.65" speed="13.90"/>
    </edge>
    <edge function="internal" id=":1/2_4">
        <lane id=":1/2_4_0" index="0" length="5.00" shape="501.65,995.25 501.84,996.61 502.42,997.57 503.39,998.16 504.75,998.35" speed="13.90"/>
    </edge>
    <edge function="internal" id=":1/2_5">
        <lane id=":1/2_5_0" index="0" length="9.50" shape="501.65,995.25 501.65,1004.75" speed="13.90"/>
    </edge>
    <edge function="internal" id=":1/2_6">
        <lane id=":1/2_6_0" index="0" length="5.00" shape="495.25,998.35 496.61,998.16 497.58,997.58 498.16,996.61 498.35,995.25" speed="13.90"/>
    </edge>
    <edge function="internal" id=":1/2_7">
        <lane id=":1/2_7_0" index="0" length="9.50" shape="495.25,998.35 504.75,998.35" speed="13.90"/>
    </edge>
    <edge function="internal" id=":1/3_0">
        <lane id=":1/3_0_0" index="0" length="5.00" shape="498.35,1504.75 498.16,1503.39 497.58,1502.43 496.61,1501.84 495.25,1501.65" speed="13.90"/>
    </edge>
    <edge function="internal" id=":1/3_1">
        <lane id=":1/3_1_0" index="0" length="9.50" shape="498.35,1504.75 498.35,1495.25" speed="13.90"/>
    </edge>
    <edge function="internal" id=":1/3_2">
        <lane id=":1/3_2_0" index="0" length="5.00" shape="504.75,1501.65 503.39,1501.84 502.42,1502.43 501.84,1503.39 501.65,1504.75" speed="13.90"/>
    </edge>
    <edge function="internal" id=":1/3_3">
        <lane id=":1/3_3_0" index="0" length="9.50" shape="504.75,1501.65 495.25,1501.65" speed="13.90"/>
    </edge>
    <edge function="internal" id=":1/3_4">
        <lane id=":1/3_4_0" index="0" length="5.00" shape="501.65,1495.25 501.84,1496.61 502.42,1497.57 503.39,1498.16 504.75,1498.35" speed="13.90"/>
    </edge>
    <edge function="internal" id=":1/3_5">
        <lane id=":1/3_5_0" index="0" length="9.50" shape="501.65,1495.25 501.65,1504.75" speed="13.90"/>
    </edge>
    <edge function="internal" id=":1/3_6">
        <lane id=":1/3_6_0" index="0" length="5.00" shape="495.25,1498.35 496.61,1498.16 497.58,1497.57 498.16,1496.61 498.35,1495.25" speed="13.90"/>
    </edge>
    <edge function="internal" id=":1/3_7">
        <lane id=":1/3_7_0" index="0" length="9.50" shape="495.25,1498.35 504.75,1498.35" speed="13.90"/>
    </edge>
    <edge function="internal" id=":1/4_0">
        <lane id=":1/4_0_0" index="0" length="9.50" shape="504.75,2001.65 495.25,2001.65" speed="13.90"/>
    </edge>
    <edge function="internal" id=":1/4_1">
        <lane id=":1/4_1_0" index="0" length="5.00" shape="501.65,1995.25 501.84,1996.61 502.42,1997.57 503.39,1998.16 504.75,1998.35" speed="13.90"/>
    </edge>
    <edge function="internal" id=":1/4_2">
        <lane id=":1/4_2_0" index="0" length="5.00" shape="495.25,1998.35 496.61,1998.16 497.58,1997.57 498.16,1996.61 498.35,1995.25" speed="13.90"/>
    </edge>
    <edge function="internal" id=":1/4_3">
        <lane id=":1/4_3_0" index="0" length="9.50" shape="495.25,1998.35 504.75,1998.35" speed="13.90"/>
    </edge>
    <edge function="internal" id=":2/0_0">
        <lane id=":2/0_0_0" index="0" length="5.00" shape="998.35,4.75 998.16,3.39 997.58,2.43 996.61,1.84 995.25,1.65" speed="13.90"/>
    </edge>
    <edge function="internal" id=":2/0_1">
        <lane id=":2/0_1_0" index="0" length="5.00" shape="1004.75,1.65 1003.39,1.84 1002.43,2.42 1001.84,3.39 1001.65,4.75" speed="13.90"/>
    </edge>
    <edge function="internal" id=":2/0_2">
        <lane id=":2/0_2_0" index="0" length="9.50" shape="1004.75,1.65 995.25,1.65" speed="13.90"/>
    </edge>
    <edge function="internal" id=":2/0_3">
        <lane id=":2/0_3_0" index="0" length="9.50" shape="995.25,-1.65 1004.75,-1.65" speed="13.90"/>
    </edge>
    <edge function="internal" id=":2/1_0">
        <lane id=":2/1_0_0" index="0" length="5.00" shape="998.35,504.75 998.16,503.39 997.58,502.42 996.61,501.84 995.25,501.65" speed="13.90"/>
    </edge>
    <edge function="internal" id=":2/1_1">
        <lane id=":2/1_1_0" index="0" length="9.50" shape="998.35,504.75 998.35,495.25" speed="13.90"/>
    </edge>
    <edge function="internal" id=":2/1_2">
        <lane id=":2/1_2_0" index="0" length="5.00" shape="1004.75,501.65 1003.39,501.84 1002.43,502.42 1001.84,503.39 1001.65,504.75" speed="13.90"/>
    </edge>
    <edge function="internal" id=":2/1_3">
        <lane id=":2/1_3_0" index="0" length="9.50" shape="1004.75,501.65 995.25,501.65" speed="13.90"/>
    </edge>
    <edge function="internal" id=":2/1_4">
        <lane id=":2/1_4_0" index="0" length="5.00" shape="1001.65,495.25 1001.84,496.61 1002.42,497.58 1003.39,498.16 1004.75,498.35" speed="13.90"/>
    </edge>
    <edge function="internal" id=":2/1_5">
        <lane id=":2/1_5_0" index="0" length="9.50" shape="1001.65,495.25 1001.65,504.75" speed="13.90"/>
    </edge>
    <edge function="internal" id=":2/1_6">
        <lane id=":2/1_6_0" index="0" length="5.00" shape="995.25,498.35 996.61,498.16 997.57,497.58 998.16,496.61 998.35,495.25" speed="13.90"/>
    </edge>
    <edge function="internal" id=":2/1_7">
        <lane id=":2/1_7_0" index="0" length="9.50" shape="995.25,498.35 1004.75,498.35" speed="13.90"/>
    </edge>
    <edge function="internal" id=":2/2_0">
        <lane id=":2/2_0_0" index="0" length="5.00" shape="998.35,1004.75 998.16,1003.39 997.58,1002.43 996.61,1001.84 995.25,1001.65" speed="13.90"/>
    </edge>
    <edge function="internal" id=":2/2_1">
        <lane id=":2/2_1_0" index="0" length="9.50" shape="998.35,1004.75 998.35,995.25" speed="13.90"/>
    </edge>
    <edge function="internal" id=":2/2_2">
        <lane id=":2/2_2_0" index="0" length="5.00" shape="1004.75,1001.65 1003.39,1001.84 1002.43,1002.42 1001.84,1003.39 1001.65,1004.75" speed="13.90"/>
    </edge>
    <edge function="internal" id=":2/2_3">
        <lane id=":2/2_3_0" index="0" length="9.50" shape="1004.75,1001.65 995.25,1001.65" speed="13.90"/>
    </edge>
    <edge function="internal" id=":2/2_4">
        <lane id=":2/2_4_0" index="0" length="5.00" shape="1001.65,995.25 1001.84,996.61 1002.42,997.57 1003.39,998.16 1004.75,998.35" speed="13.90"/>
    </edge>
    <edge function="internal" id=":2/2_5">
        <lane id=":2/2_5_0" index="0" length="9.50" shape="1001.65,995.25 1001.65,1004.75" speed="13.90"/>
    </edge>
    <edge function="internal" id=":2/2_6">
        <lane id=":2/2_6_0" index="0" length="5.00" shape="995.25,998.35 996.61,998.16 997.57,997.58 998.16,996.61 998.35,995.25" speed="13.90"/>
    </edge>
    <edge function="internal" id=":2/2_7">
        <lane id=":2/2_7_0" index="0" length="9.50" shape="995.25,998.35 1004.75,998.35" speed="13.90"/>
    </edge>
    <edge function="internal" id=":2/3_0">
        <lane id=":2/3_0_0" index="0" length="5.00" shape="998.35,1504.75 998.16,1503.39 997.58,1502.43 996.61,1501.84 995.25,1501.65" speed="13.90"/>
    </edge>
    <edge function="internal" id=":2/3_1">
        <lane id=":2/3_1_0" index="0" length="9.50" shape="998.35,1504.75 998.35,1495.25" speed="13.90"/>
    </edge>
    <edge function="internal" id=":2/3_2">
        <lane id=":2/3_2_0" index="0" length="5.00" shape="1004.75,1501.65 1003.39,1501.84 1002.43,1502.43 1001.84,1503.39 1001.65,1504.75" speed="13.90"/>
    </edge>
    <edge function="internal" id=":2/3_3">
        <lane id=":2/3_3_0" index="0" length="9.50" shape="1004.75,1501.65 995.25,1501.65" speed="13.90"/>
    </edge>
    <edge function="internal" id=":2/3_4">
        <lane id=":2/3_4_0" index="0" length="5.00" shape="1001.65,1495.25 1001.84,1496.61 1002.42,1497.57 1003.39,1498.16 1004.75,1498.35" speed="13.90"/>
    </edge>
    <edge function="internal" id=":2/3_5">
        <lane id=":2/3_5_0" index="0" length="9.50" shape="1001.65,1495.25 1001.65,1504.75" speed="13.90"/>
    </edge>
    <edge function="internal" id=":2/3_6">
        <lane id=":2/3_6_0" index="0" length="5.00" shape="995.25,1498.35 996.61,1498.16 997.57,1497.57 998.16,1496.61 998.35,1495.25" speed="13.90"/>
    </edge>
    <edge function="internal" id=":2/3_7">
        <lane id=":2/3_7_0" index="0" length="9.50" shape="995.25,1498.35 1004.75,1498.35" speed="13.90"/>
    </edge>
    <edge function="internal" id=":2/4_0">
        <lane id=":2/4_0_0" index="0" length="9.50" shape="1004.75,2001.65 995.25,2001.65" speed="13.90"/>
    </edge>
    <edge function="internal" id=":2/4_1">
        <lane id=":2/4_1_0" index="0" length="5.00" shape="1001.65,1995.25 1001.84,1996.61 1002.42,1997.57 1003.39,1998.16 1004.75,1998.35" speed="13.90"/>
    </edge>
    <edge function="internal" id=":2/4_2">
        <lane id=":2/4_2_0" index="0" length="5.00" shape="995.25,1998.35 996.61,1998.16 997.57,1997.57 998.16,1996.61 998.35,1995.25" speed="13.90"/>
    </edge>
    <edge function="internal" id=":2/4_3">
        <lane id=":2/4_3_0" index="0" length="9.50" shape="995.25,1998.35 1004.75,1998.35" speed="13.90"/>
    </edge>
    <edge function="internal" id=":3/0_0">
        <lane id=":3/0_0_0" index="0" length="5.00" shape="1498.35,4.75 1498.16,3.39 1497.57,2.43 1496.61,1.84 1495.25,1.65" speed="13.90"/>
    </edge>
    <edge function="internal" id=":3/0_1">
        <lane id=":3/0_1_0" index="0" length="5.00" shape="1504.75,1.65 1503.39,1.84 1502.43,2.42 1501.84,3.39 1501.65,4.75" speed="13.90"/>
    </edge>
    <edge function="internal" id=":3/0_2">
        <lane id=":3/0_2_0" index="0" length="9.50" shape="1504.75,1.65 1495.25,1.65" speed="13.90"/>
    </edge>
    <edge function="internal" id=":3/0_3">
        <lane id=":3/0_3_0" index="0" length="9.50" shape="1495.25,-1.65 1504.75,-1.65" speed="13.90"/>
    </edge>
    <edge function="internal" id=":3/1_0">
        <lane id=":3/1_0_0" index="0" length="5.00" shape="1498.35,504.75 1498.16,503.39 1497.57,502.42 1496.61,501.84 1495.25,501.65" speed="13.90"/>
    </edge>
    <edge function="internal" id=":3/1_1">
        <lane id=":3/1_1_0" index="0" length="9.50" shape="1498.35,504.75 1498.35,495.25" speed="13.90"/>
    </edge>
    <edge function="internal" id=":3/1_2">
        <lane id=":3/1_2_0" index="0" length="5.00" shape="1504.75,501.65 1503.39,501.84 1502.43,502.42 1501.84,503.39 1501.65,504.75" speed="13.90"/>
    </edge>
    <edge function="internal" id=":3/1_3">
        <lane id=":3/1_3_0" index="0" length="9.50" shape="1504.75,501.65 1495.25,501.65" speed="13.90"/>
    </edge>
    <edge function="internal" id=":3/1_4">
        <lane id=":3/1_4_0" index="0" length="5.00" shape="1501.65,495.25 1501.84,496.61 1502.43,497.58 1503.39,498.16 1504.75,498.35" speed="13.90"/>
    </edge>
    <edge function="internal" id=":3/1_5">
        <lane id=":3/1_5_0" index="0" length="9.50" shape="1501.65,495.25 1501.65,504.75" speed="13.90"/>
    </edge>
    <edge function="internal" id=":3/1_6">
        <lane id=":3/1_6_0" index="0" length="5.00" shape="1495.25,498.35 1496.61,498.16 1497.57,497.58 1498.16,496.61 1498.35,495.25" speed="13.90"/>
    </edge>
    <edge function="internal" id=":3/1_7">
        <lane id=":3/1_7_0" index="0" length="9.50" shape="1495.25,498.35 1504.75,498.35" speed="13.90"/>
    </edge>
    <edge function="internal" id=":3/2_0">
        <lane id=":3/2_0_0" index="0" length="5.00" shape="1498.35,1004.75 1498.16,1003.39 1497.57,1002.43 1496.61,1001.84 1495.25,1001.65" speed="13.90"/>
    </edge>
    <edge function="internal" id=":3/2_1">
        <lane id=":3/2_1_0" index="0" length="9.50" shape="1498.35,1004.75 1498.35,995.25" speed="13.90"/>
    </edge>
    <edge function="internal" id=":3/2_2">
        <lane id=":3/2_2_0" index="0" length="5.00" shape="1504.75,1001.65 1503.39,1001.84 1502.43,1002.42 1501.84,1003.39 1501.65,1004.75" speed="13.90"/>
    </edge>
    <edge function="internal" id=":3/2_3">
        <lane id=":3/2_3_0" index="0" length="9.50" shape="1504.75,1001.65 1495.25,1001.65" speed="13.90"/>
    </edge>
    <edge function="internal" id=":3/2_4">
        <lane id=":3/2_4_0" index="0" length="5.00" shape="1501.65,995.25 1501.84,996.61 1502.43,997.57 1503.39,998.16 1504.75,998.35" speed="13.90"/>
    </edge>
    <edge function="internal" id=":3/2_5">
        <lane id=":3/2_5_0" index="0" length="9.50" shape="1501.65,995.25 1501.65,1004.75" speed="13.90"/>
    </edge>
    <edge function="internal" id=":3/2_6">
        <lane id=":3/2_6_0" index="0" length="5.00" shape="1495.25,998.35 1496.61,998.16 1497.57,997.58 1498.16,996.61 1498.35,995.25" speed="13.90"/>
    </edge>
    <edge function="internal" id=":3/2_7">
        <lane id=":3/2_7_0" index="0" length="9.50" shape="1495.25,998.35 1504.75,998.35" speed="13.90"/>
    </edge>
    <edge function="internal" id=":3/3_0">
        <lane id=":3/3_0_0" index="0" length="5.00" shape="1498.35,1504.75 1498.16,1503.39 1497.57,1502.43 1496.61,1501.84 1495.25,1501.65" speed="13.90"/>
    </edge>
    <edge function="internal" id=":3/3_1">
        <lane id=":3/3_1_0" index="0" length="9.50" shape="1498.35,1504.75 1498.35,1495.25" speed="13.90"/>
    </edge>
    <edge function="internal" id=":3/3_2">
        <lane id=":3/3_2_0" index="0" length="5.00" shape="1504.75,1501.65 1503.39,1501.84 1502.43,1502.43 1501.84,1503.39 1501.65,1504.75" speed="13.90"/>
    </edge>
    <edge function="internal" id=":3/3_3">
        <lane id=":3/3_3_0" index="0" length="9.50" shape="1504.75,1501.65 1495.25,1501.65" speed="13.90"/>
    </edge>
    <edge function="internal" id=":3/3_4">
        <lane id=":3/3_4_0" index="0" length="5.00" shape="1501.65,1495.25 1501.84,1496.61 1502.43,1497.57 1503.39,1498.16 1504.75,1498.35" speed="13.90"/>
    </edge>
    <edge function="internal" id=":3/3_5">
        <lane id=":3/3_5_0" index="0" length="9.50" shape="1501.65,1495.25 1501.65,1504.75" speed="13.90"/>
    </edge>
    <edge function="internal" id=":3/3_6">
        <lane id=":3/3_6_0" index="0" length="5.00" shape="1495.25,1498.35 1496.61,1498.16 1497.57,1497.57 1498.16,1496.61 1498.35,1495.25" speed="13.90"/>
    </edge>
    <edge function="internal" id=":3/3_7">
        <lane id=":3/3_7_0" index="0" length="9.50" shape="1495.25,1498.35 1504.75,1498.35" speed="13.90"/>
    </edge>
    <edge function="internal" id=":3/4_0">
        <lane id=":3/4_0_0" index="0" length="9.50" shape="1504.75,2001.65 1495.25,2001.65" speed="13.90"/>
    </edge>
    <edge function="internal" id=":3/4_1">
        <lane id=":3/4_1_0" index="0" length="5.00" shape="1501.65,1995.25 1501.84,1996.61 1502.43,1997.57 1503.39,1998.16 1504.75,1998.35" speed="13.90"/>
    </edge>
    <edge function="internal" id=":3/4_2">
        <lane id=":3/4_2_0" index="0" length="5.00" shape="1495.25,1998.35 1496.61,1998.16 1497.57,1997.57 1498.16,1996.61 1498.35,1995.25" speed="13.90"/>
    </edge>
    <edge function="internal" id=":3/4_3">
        <lane id=":3/4_3_0" index="0" length="9.50" shape="1495.25,1998.35 1504.75,1998.35" speed="13.90"/>
    </edge>
    <edge function="internal" id=":4/0_0">
        <lane id=":4/0_0_0" index="0" length="2.58" shape="1998.35,3.25 1998.25,2.55 1997.95,2.05 1997.45,1.75 1996.75,1.65" speed="13.90"/>
    </edge>
    <edge function="internal" id=":4/0_1">
        <lane id=":4/0_1_0" index="0" length="7.90" shape="1996.75,-1.65 1998.89,-1.34 2000.43,-0.43 2001.34,1.11 2001.65,3.25" speed="13.90"/>
    </edge>
    <edge function="internal" id=":4/1_0">
        <lane id=":4/1_0_0" index="0" length="5.00" shape="1998.35,504.75 1998.16,503.39 1997.57,502.42 1996.61,501.84 1995.25,501.65" speed="13.90"/>
    </edge>
    <edge function="internal" id=":4/1_1">
        <lane id=":4/1_1_0" index="0" length="9.50" shape="1998.35,504.75 1998.35,495.25" speed="13.90"/>
    </edge>
    <edge function="internal" id=":4/1_2">
        <lane id=":4/1_2_0" index="0" length="9.50" shape="2001.65,495.25 2001.65,504.75" speed="13.90"/>
    </edge>
    <edge function="internal" id=":4/1_3">
        <lane id=":4/1_3_0" index="0" length="5.00" shape="1995.25,498.35 1996.61,498.16 1997.57,497.58 1998.16,496.61 1998.35,495.25" speed="13.90"/>
    </edge>
    <edge function="internal" id=":4/2_0">
        <lane id=":4/2_0_0" index="0" length="5.00" shape="1998.35,1004.75 1998.16,1003.39 1997.57,1002.43 1996.61,1001.84 1995.25,1001.65" speed="13.90"/>
    </edge>
    <edge function="internal" id=":4/2_1">
        <lane id=":4/2_1_0" index="0" length="9.50" shape="1998.35,1004.75 1998.35,995.25" speed="13.90"/>
    </edge>
    <edge function="internal" id=":4/2_2">
        <lane id=":4/2_2_0" index="0" length="9.50" shape="2001.65,995.25 2001.65,1004.75" speed="13.90"/>
    </edge>
    <edge function="internal" id=":4/2_3">
        <lane id=":4/2_3_0" index="0" length="5.00" shape="1995.25,998.35 1996.61,998.16 1997.57,997.58 1998.16,996.61 1998.35,995.25" speed="13.90"/>
    </edge>
    <edge function="internal" id=":4/3_0">
        <lane id=":4/3_0_0" index="0" length="5.00" shape="1998.35,1504.75 1998.16,1503.39 1997.57,1502.43 1996.61,1501.84 1995.25,1501.65" speed="13.90"/>
    </edge>
    <edge function="internal" id=":4/3_1">
        <lane id=":4/3_1_0" index="0" length="9.50" shape="1998.35,1504.75 1998.35,1495.25" speed="13.90"/>
    </edge>
    <edge function="internal" id=":4/3_2">
        <lane id=":4/3_2_0" index="0" length="9.50" shape="2001.65,1495.25 2001.65,1504.75" speed="13.90"/>
    </edge>
    <edge function="internal" id=":4/3_3">
        <lane id=":4/3_3_0" index="0" length="5.00" shape="1995.25,1498.35 1996.61,1498.16 1997.57,1497.57 1998.16,1496.61 1998.35,1495.25" speed="13.90"/>
    </edge>
    <edge function="internal" id=":4/4_0">
        <lane id=":4/4_0_0" index="0" length="7.90" shape="2001.65,1996.75 2001.34,1998.89 2000.43,2000.43 1998.89,2001.34 1996.75,2001.65" speed="13.90"/>
    </edge>
    <edge function="internal" id=":4/4_1">
        <lane id=":4/4_1_0" index="0" length="2.58" shape="1996.75,1998.35 1997.45,1998.25 1997.95,1997.95 1998.25,1997.45 1998.35,1996.75" speed="13.90"/>
    </edge>

    <edge from="0/0" id="0/0to0/1" priority="-1" to="0/1">
        <lane id="0/0to0/1_0" index="0" length="492.00" shape="1.65,3.25 1.65,495.25" speed="13.90"/>
    </edge>
    <edge from="0/0" id="0/0to1/0" priority="-1" to="1/0">
        <lane id="0/0to1/0_0" index="0" length="492.00" shape="3.25,-1.65 495.25,-1.65" speed="13.90"/>
    </edge>
    <edge from="0/1" id="0/1to0/0" priority="-1" to="0/0">
        <lane id="0/1to0/0_0" index="0" length="492.00" shape="-1.65,495.25 -1.65,3.25" speed="13.90"/>
    </edge>
    <edge from="0/1" id="0/1to0/2" priority="-1" to="0/2">
        <lane id="0/1to0/2_0" index="0" length="490.50" shape="1.65,504.75 1.65,995.25" speed="13.90"/>
    </edge>
    <edge from="0/1" id="0/1to1/1" priority="-1" to="1/1">
        <lane id="0/1to1/1_0" index="0" length="490.50" shape="4.75,498.35 495.25,498.35" speed="13.90"/>
    </edge>
    <edge from="0/2" id="0/2to0/1" priority="-1" to="0/1">
        <lane id="0/2to0/1_0" index="0" length="490.50" shape="-1.65,995.25 -1.65,504.75" speed="13.90"/>
    </edge>
    <edge from="0/2" id="0/2to0/3" priority="-1" to="0/3">
        <lane id="0/2to0/3_0" index="0" length="490.50" shape="1.65,1004.75 1.65,1495.25" speed="13.90"/>
    </edge>
    <edge from="0/2" id="0/2to1/2" priority="-1" to="1/2">
        <lane id="0/2to1/2_0" index="0" length="490.50" shape="4.75,998.35 495.25,998.35" speed="13.90"/>
    </edge>
    <edge from="0/3" id="0/3to0/2" priority="-1" to="0/2">
        <lane id="0/3to0/2_0" index="0" length="490.50" shape="-1.65,1495.25 -1.65,1004.75" speed="13.90"/>
    </edge>
    <edge from="0/3" id="0/3to0/4" priority="-1" to="0/4">
        <lane id="0/3to0/4_0" index="0" length="492.00" shape="1.65,1504.75 1.65,1996.75" speed="13.90"/>
    </edge>
    <edge from="0/3" id="0/3to1/3" priority="-1" to="1/3">
        <lane id="0/3to1/3_0" index="0" length="490.50" shape="4.75,1498.35 495.25,1498.35" speed="13.90"/>
    </edge>
    <edge from="0/4" id="0/4to0/3" priority="-1" to="0/3">
        <lane id="0/4to0/3_0" index="0" length="492.00" shape="-1.65,1996.75 -1.65,1504.75" speed="13.90"/>
    </edge>
    <edge from="0/4" id="0/4to1/4" priority="-1" to="1/4">
        <lane id="0/4to1/4_0" index="0" length="492.00" shape="3.25,1998.35 495.25,1998.35" speed="13.90"/>
    </edge>
    <edge from="1/0" id="1/0to0/0" priority="-1" to="0/0">
        <lane id="1/0to0/0_0" index="0" length="492.00" shape="495.25,1.65 3.25,1.65" speed="13.90"/>
    </edge>
    <edge from="1/0" id="1/0to1/1" priority="-1" to="1/1">
        <lane id="1/0to1/1_0" index="0" length="490.50" shape="501.65,4.75 501.65,495.25" speed="13.90"/>
    </edge>
    <edge from="1/0" id="1/0to2/0" priority="-1" to="2/0">
        <lane id="1/0to2/0_0" index="0" length="490.50" shape="504.75,-1.65 995.25,-1.65" speed="13.90"/>
    </edge>
    <edge from="1/1" id="1/1to0/1" priority="-1" to="0/1">
        <lane id="1/1to0/1_0" index="0" length="490.50" shape="495.25,501.65 4.75,501.65" speed="13.90"/>
    </edge>
    <edge from="1/1" id="1/1to1/0" priority="-1" to="1/0">
        <lane id="1/1to1/0_0" index="0" length="490.50" shape="498.35,495.25 498.35,4.75" speed="13.90"/>
    </edge>
    <edge from="1/1" id="1/1to1/2" priority="-1" to="1/2">
        <lane id="1/1to1/2_0" index="0" length="490.50" shape="501.65,504.75 501.65,995.25" speed="13.90"/>
    </edge>
    <edge from="1/1" id="1/1to2/1" priority="-1" to="2/1">
        <lane id="1/1to2/1_0" index="0" length="490.50" shape="504.75,498.35 995.25,498.35" speed="13.90"/>
    </edge>
    <edge from="1/2" id="1/2to0/2" priority="-1" to="0/2">
        <lane id="1/2to0/2_0" index="0" length="490.50" shape="495.25,1001.65 4.75,1001.65" speed="13.90"/>
    </edge>
    <edge from="1/2" id="1/2to1/1" priority="-1" to="1/1">
        <lane id="1/2to1/1_0" index="0" length="490.50" shape="498.35,995.25 498.35,504.75" speed="13.90"/>
    </edge>
    <edge from="1/2" id="1/2to1/3" priority="-1" to="1/3">
        <lane id="1/2to1/3_0" index="0" length="490.50" shape="501.65,1004.75 501.65,1495.25" speed="13.90"/>
    </edge>
    <edge from="1/2" id="1/2to2/2" priority="-1" to="2/2">
        <lane id="1/2to2/2_0" index="0" length="490.50" shape="504.75,998.35 995.25,998.35" speed="13.90"/>
    </edge>
    <edge from="1/3" id="1/3to0/3" priority="-1" to="0/3">
        <lane id="1/3to0/3_0" index="0" length="490.50" shape="495.25,1501.65 4.75,1501.65" speed="13.90"/>
    </edge>
    <edge from="1/3" id="1/3to1/2" priority="-1" to="1/2">
        <lane id="1/3to1/2_0" index="0" length="490.50" shape="498.35,1495.25 498.35,1004.75" speed="13.90"/>
    </edge>
    <edge from="1/3" id="1/3to1/4" priority="-1" to="1/4">
        <lane id="1/3to1/4_0" index="0" length="490.50" shape="501.65,1504.75 501.65,1995.25" speed="13.90"/>
    </edge>
    <edge from="1/3" id="1/3to2/3" priority="-1" to="2/3">
        <lane id="1/3to2/3_0" index="0" length="490.50" shape="504.75,1498.35 995.25,1498.35" speed="13.90"/>
    </edge>
    <edge from="1/4" id="1/4to0/4" priority="-1" to="0/4">
        <lane id="1/4to0/4_0" index="0" length="492.00" shape="495.25,2001.65 3.25,2001.65" speed="13.90"/>
    </edge>
    <edge from="1/4" id="1/4to1/3" priority="-1" to="1/3">
        <lane id="1/4to1/3_0" index="0" length="490.50" shape="498.35,1995.25 498.35,1504.75" speed="13.90"/>
    </edge>
    <edge from="1/4" id="1/4to2/4" priority="-1" to="2/4">